data_MFI_SI

_audit_creation_method RASPA-1.0
_audit_creation_date 2022-11-15
_audit_author_name 'Zhao Li'

_citation_author_name        'H. van Koningsveld, H. van Bekkum, and J. C. Jansen'
_citation_title              'On the location and disorder of the tetrapropylammonium (TPA) ion in zeolite ZSM-5 with improved framework accuracy'
_citation_journal_abbrev     'Acta Cryst.'
_citation_journal_volume     B43
_citation_page_first         127
_citation_page_last          132
_citation_year               1987

_cell_length_a    40.044
_cell_length_b    39.798
_cell_length_c    26.766
_cell_angle_alpha 90
_cell_angle_beta  90
_cell_angle_gamma 90
_cell_volume      42656.2

_symmetry_cell_setting          orthorhombic
_symmetry_space_group_name_Hall 'P 1'
_symmetry_space_group_name_H-M  'P 1'
_symmetry_Int_Tables_number     1

_symmetry_equiv_pos_as_xyz 'x,y,z'

loop_
_atom_site_label
_atom_site_type_symbol
_atom_site_fract_x
_atom_site_fract_y
_atom_site_fract_z
_atom_site_charge
Si1      Si4+   0.211190000000     0.028250000000     0.332010000000     2.05       
Si2      Si4+   0.153580000000     0.013860000000     0.405350000000     2.05       
Si3      Si4+   0.139555000000     0.030635000000     0.015600000000     2.05       
Si4      Si4+   0.061075000000     0.031490000000     0.013350000000     2.05       
Si5      Si4+   0.035640000000     0.013610000000     0.407245000000     2.05       
Si6      Si4+   0.093205000000     0.029480000000     0.335910000000     2.05       
Si7      Si4+   0.211325000000     0.413750000000     0.336410000000     2.05       
Si8      Si4+   0.153890000000     0.434920000000     0.407260000000     2.05       
Si9      Si4+   0.137770000000     0.413605000000     0.015545000000     2.05       
Si10     Si4+   0.060290000000     0.413450000000     0.014895000000     2.05       
Si11     Si4+   0.035220000000     0.434815000000     0.409000000000     2.05       
Si12     Si4+   0.093530000000     0.413365000000     0.340335000000     2.05       
O1       O2-    0.186300000000     0.026700000000     0.377900000000    -1.025      
O2       O2-    0.154200000000     0.029350000000     0.460550000000    -1.025      
O3       O2-    0.100350000000     0.029600000000     0.014450000000    -1.025      
O4       O2-    0.048450000000     0.030550000000     0.457200000000    -1.025      
O5       O2-    0.057450000000     0.027050000000     0.361850000000    -1.025      
O6       O2-    0.121750000000     0.027650000000     0.377000000000    -1.025      
O7       O2-    0.187100000000     0.421950000000     0.381400000000    -1.025      
O8       O2-    0.154250000000     0.422400000000     0.463600000000    -1.025      
O9       O2-    0.099000000000     0.422300000000     0.014400000000    -1.025      
O10      O2-    0.045500000000     0.419300000000     0.461150000000    -1.025      
O11      O2-    0.058450000000     0.421100000000     0.365300000000    -1.025      
O12      O2-    0.122400000000     0.420300000000     0.378900000000    -1.025      
O13      O2-    0.152350000000     0.474500000000     0.406700000000    -1.025      
O14      O2-    0.038400000000     0.474050000000     0.411550000000    -1.025      
O15      O2-    0.208050000000     0.063800000000     0.305200000000    -1.025      
O16      O2-    0.204300000000     0.499150000000     0.293200000000    -1.025      
O17      O2-    0.201000000000     0.434300000000     0.288050000000    -1.025      
O18      O2-    0.094300000000     0.064900000000     0.308200000000    -1.025      
O19      O2-    0.097000000000     0.000350000000     0.295900000000    -1.025      
O20      O2-    0.097550000000     0.435450000000     0.290500000000    -1.025      
O21      O2-    0.498150000000     0.025100000000     0.396000000000    -1.025      
O22      O2-    0.498000000000     0.423600000000     0.396100000000    -1.025      
O23      O2-    0.209600000000     0.375000000000     0.323000000000    -1.025      
O24      O2-    0.094200000000     0.375000000000     0.323100000000    -1.025      
O25      O2-    0.144150000000     0.375000000000     0.028950000000    -1.025      
O26      O2-    0.054250000000     0.375000000000     0.030550000000    -1.025      
Si1      Si4+   0.038810000000     0.471750000000     0.082010000000     2.05       
Si2      Si4+   0.096420000000     0.486140000000     0.155350000000     2.05       
Si3      Si4+   0.110445000000     0.469365000000     0.265600000000     2.05       
Si4      Si4+   0.188925000000     0.468510000000     0.263350000000     2.05       
Si5      Si4+   0.214360000000     0.486390000000     0.157245000000     2.05       
Si6      Si4+   0.156795000000     0.470520000000     0.085910000000     2.05       
Si7      Si4+   0.038675000000     0.086250000000     0.086410000000     2.05       
Si8      Si4+   0.096110000000     0.065080000000     0.157260000000     2.05       
Si9      Si4+   0.112230000000     0.086395000000     0.265545000000     2.05       
Si10     Si4+   0.189710000000     0.086550000000     0.264895000000     2.05       
Si11     Si4+   0.214780000000     0.065185000000     0.159000000000     2.05       
Si12     Si4+   0.156470000000     0.086635000000     0.090335000000     2.05       
O1       O2-    0.063700000000     0.473300000000     0.127900000000    -1.025      
O2       O2-    0.095800000000     0.470650000000     0.210550000000    -1.025      
O3       O2-    0.149650000000     0.470400000000     0.264450000000    -1.025      
O4       O2-    0.201550000000     0.469450000000     0.207200000000    -1.025      
O5       O2-    0.192550000000     0.472950000000     0.111850000000    -1.025      
O6       O2-    0.128250000000     0.472350000000     0.127000000000    -1.025      
O7       O2-    0.062900000000     0.078050000000     0.131400000000    -1.025      
O8       O2-    0.095750000000     0.077600000000     0.213600000000    -1.025      
O9       O2-    0.151000000000     0.077700000000     0.264400000000    -1.025      
O10      O2-    0.204500000000     0.080700000000     0.211150000000    -1.025      
O11      O2-    0.191550000000     0.078900000000     0.115300000000    -1.025      
O12      O2-    0.127600000000     0.079700000000     0.128900000000    -1.025      
O13      O2-    0.097650000000     0.025500000000     0.156700000000    -1.025      
O14      O2-    0.211600000000     0.025950000000     0.161550000000    -1.025      
O15      O2-    0.041950000000     0.436200000000     0.055200000000    -1.025      
O16      O2-    0.045700000000     0.000850000000     0.043200000000    -1.025      
O17      O2-    0.049000000000     0.065700000000     0.038050000000    -1.025      
O18      O2-    0.155700000000     0.435100000000     0.058200000000    -1.025      
O19      O2-    0.153000000000     0.499650000000     0.045900000000    -1.025      
O20      O2-    0.152450000000     0.064550000000     0.040500000000    -1.025      
O21      O2-    0.251850000000     0.474900000000     0.146000000000    -1.025      
O22      O2-    0.252000000000     0.076400000000     0.146100000000    -1.025      
O23      O2-    0.040400000000     0.125000000000     0.073000000000    -1.025      
O24      O2-    0.155800000000     0.125000000000     0.073100000000    -1.025      
O25      O2-    0.105850000000     0.125000000000     0.278950000000    -1.025      
O26      O2-    0.195750000000     0.125000000000     0.280550000000    -1.025      
Si1      Si4+   0.461190000000     0.221750000000     0.417990000000     2.05       
Si2      Si4+   0.403580000000     0.236140000000     0.344650000000     2.05       
Si3      Si4+   0.389555000000     0.219365000000     0.234400000000     2.05       
Si4      Si4+   0.311075000000     0.218510000000     0.236650000000     2.05       
Si5      Si4+   0.285640000000     0.236390000000     0.342755000000     2.05       
Si6      Si4+   0.343205000000     0.220520000000     0.414090000000     2.05       
Si7      Si4+   0.461325000000     0.336250000000     0.413590000000     2.05       
Si8      Si4+   0.403890000000     0.315080000000     0.342740000000     2.05       
Si9      Si4+   0.387770000000     0.336395000000     0.234455000000     2.05       
Si10     Si4+   0.310290000000     0.336550000000     0.235105000000     2.05       
Si11     Si4+   0.285220000000     0.315185000000     0.341000000000     2.05       
Si12     Si4+   0.343530000000     0.336635000000     0.409665000000     2.05       
O1       O2-    0.436300000000     0.223300000000     0.372100000000    -1.025      
O2       O2-    0.404200000000     0.220650000000     0.289450000000    -1.025      
O3       O2-    0.350350000000     0.220400000000     0.235550000000    -1.025      
O4       O2-    0.298450000000     0.219450000000     0.292800000000    -1.025      
O5       O2-    0.307450000000     0.222950000000     0.388150000000    -1.025      
O6       O2-    0.371750000000     0.222350000000     0.373000000000    -1.025      
O7       O2-    0.437100000000     0.328050000000     0.368600000000    -1.025      
O8       O2-    0.404250000000     0.327600000000     0.286400000000    -1.025      
O9       O2-    0.349000000000     0.327700000000     0.235600000000    -1.025      
O10      O2-    0.295500000000     0.330700000000     0.288850000000    -1.025      
O11      O2-    0.308450000000     0.328900000000     0.384700000000    -1.025      
O12      O2-    0.372400000000     0.329700000000     0.371100000000    -1.025      
O13      O2-    0.402350000000     0.275500000000     0.343300000000    -1.025      
O14      O2-    0.288400000000     0.275950000000     0.338450000000    -1.025      
O15      O2-    0.458050000000     0.186200000000     0.444800000000    -1.025      
O16      O2-    0.454300000000     0.250850000000     0.456800000000    -1.025      
O17      O2-    0.451000000000     0.315700000000     0.461950000000    -1.025      
O18      O2-    0.344300000000     0.185100000000     0.441800000000    -1.025      
O19      O2-    0.347000000000     0.249650000000     0.454100000000    -1.025      
O20      O2-    0.347550000000     0.314550000000     0.459500000000    -1.025      
O21      O2-    0.248150000000     0.224900000000     0.354000000000    -1.025      
O22      O2-    0.248000000000     0.326400000000     0.353900000000    -1.025      
O23      O2-    0.459600000000     0.375000000000     0.427000000000    -1.025      
O24      O2-    0.344200000000     0.375000000000     0.426900000000    -1.025      
O25      O2-    0.394150000000     0.375000000000     0.221050000000    -1.025      
O26      O2-    0.304250000000     0.375000000000     0.219450000000    -1.025      
Si1      Si4+   0.288810000000     0.278250000000     0.167990000000     2.05       
Si2      Si4+   0.346420000000     0.263860000000     0.094650000000     2.05       
Si3      Si4+   0.360445000000     0.280635000000     0.484400000000     2.05       
Si4      Si4+   0.438925000000     0.281490000000     0.486650000000     2.05       
Si5      Si4+   0.464360000000     0.263610000000     0.092755000000     2.05       
Si6      Si4+   0.406795000000     0.279480000000     0.164090000000     2.05       
Si7      Si4+   0.288675000000     0.163750000000     0.163590000000     2.05       
Si8      Si4+   0.346110000000     0.184920000000     0.092740000000     2.05       
Si9      Si4+   0.362230000000     0.163605000000     0.484455000000     2.05       
Si10     Si4+   0.439710000000     0.163450000000     0.485105000000     2.05       
Si11     Si4+   0.464780000000     0.184815000000     0.091000000000     2.05       
Si12     Si4+   0.406470000000     0.163365000000     0.159665000000     2.05       
O1       O2-    0.313700000000     0.276700000000     0.122100000000    -1.025      
O2       O2-    0.345800000000     0.279350000000     0.039450000000    -1.025      
O3       O2-    0.399650000000     0.279600000000     0.485550000000    -1.025      
O4       O2-    0.451550000000     0.280550000000     0.042800000000    -1.025      
O5       O2-    0.442550000000     0.277050000000     0.138150000000    -1.025      
O6       O2-    0.378250000000     0.277650000000     0.123000000000    -1.025      
O7       O2-    0.312900000000     0.171950000000     0.118600000000    -1.025      
O8       O2-    0.345750000000     0.172400000000     0.036400000000    -1.025      
O9       O2-    0.401000000000     0.172300000000     0.485600000000    -1.025      
O10      O2-    0.454500000000     0.169300000000     0.038850000000    -1.025      
O11      O2-    0.441550000000     0.171100000000     0.134700000000    -1.025      
O12      O2-    0.377600000000     0.170300000000     0.121100000000    -1.025      
O13      O2-    0.347650000000     0.224500000000     0.093300000000    -1.025      
O14      O2-    0.461600000000     0.224050000000     0.088450000000    -1.025      
O15      O2-    0.291950000000     0.313800000000     0.194800000000    -1.025      
O16      O2-    0.295700000000     0.249150000000     0.206800000000    -1.025      
O17      O2-    0.299000000000     0.184300000000     0.211950000000    -1.025      
O18      O2-    0.405700000000     0.314900000000     0.191800000000    -1.025      
O19      O2-    0.403000000000     0.250350000000     0.204100000000    -1.025      
O20      O2-    0.402450000000     0.185450000000     0.209500000000    -1.025      
O21      O2-    0.001850000000     0.275100000000     0.104000000000    -1.025      
O22      O2-    0.002000000000     0.173600000000     0.103900000000    -1.025      
O23      O2-    0.290400000000     0.125000000000     0.177000000000    -1.025      
O24      O2-    0.405800000000     0.125000000000     0.176900000000    -1.025      
O25      O2-    0.355850000000     0.125000000000     0.471050000000    -1.025      
O26      O2-    0.445750000000     0.125000000000     0.469450000000    -1.025      
Si1      Si4+   0.288810000000     0.471750000000     0.167990000000     2.05       
Si2      Si4+   0.346420000000     0.486140000000     0.094650000000     2.05       
Si3      Si4+   0.360445000000     0.469365000000     0.484400000000     2.05       
Si4      Si4+   0.438925000000     0.468510000000     0.486650000000     2.05       
Si5      Si4+   0.464360000000     0.486390000000     0.092755000000     2.05       
Si6      Si4+   0.406795000000     0.470520000000     0.164090000000     2.05       
Si7      Si4+   0.288675000000     0.086250000000     0.163590000000     2.05       
Si8      Si4+   0.346110000000     0.065080000000     0.092740000000     2.05       
Si9      Si4+   0.362230000000     0.086395000000     0.484455000000     2.05       
Si10     Si4+   0.439710000000     0.086550000000     0.485105000000     2.05       
Si11     Si4+   0.464780000000     0.065185000000     0.091000000000     2.05       
Si12     Si4+   0.406470000000     0.086635000000     0.159665000000     2.05       
O1       O2-    0.313700000000     0.473300000000     0.122100000000    -1.025      
O2       O2-    0.345800000000     0.470650000000     0.039450000000    -1.025      
O3       O2-    0.399650000000     0.470400000000     0.485550000000    -1.025      
O4       O2-    0.451550000000     0.469450000000     0.042800000000    -1.025      
O5       O2-    0.442550000000     0.472950000000     0.138150000000    -1.025      
O6       O2-    0.378250000000     0.472350000000     0.123000000000    -1.025      
O7       O2-    0.312900000000     0.078050000000     0.118600000000    -1.025      
O8       O2-    0.345750000000     0.077600000000     0.036400000000    -1.025      
O9       O2-    0.401000000000     0.077700000000     0.485600000000    -1.025      
O10      O2-    0.454500000000     0.080700000000     0.038850000000    -1.025      
O11      O2-    0.441550000000     0.078900000000     0.134700000000    -1.025      
O12      O2-    0.377600000000     0.079700000000     0.121100000000    -1.025      
O13      O2-    0.347650000000     0.025500000000     0.093300000000    -1.025      
O14      O2-    0.461600000000     0.025950000000     0.088450000000    -1.025      
O15      O2-    0.291950000000     0.436200000000     0.194800000000    -1.025      
O16      O2-    0.295700000000     0.000850000000     0.206800000000    -1.025      
O17      O2-    0.299000000000     0.065700000000     0.211950000000    -1.025      
O18      O2-    0.405700000000     0.435100000000     0.191800000000    -1.025      
O19      O2-    0.403000000000     0.499650000000     0.204100000000    -1.025      
O20      O2-    0.402450000000     0.064550000000     0.209500000000    -1.025      
O21      O2-    0.001850000000     0.474900000000     0.104000000000    -1.025      
O22      O2-    0.002000000000     0.076400000000     0.103900000000    -1.025      
Si1      Si4+   0.461190000000     0.028250000000     0.417990000000     2.05       
Si2      Si4+   0.403580000000     0.013860000000     0.344650000000     2.05       
Si3      Si4+   0.389555000000     0.030635000000     0.234400000000     2.05       
Si4      Si4+   0.311075000000     0.031490000000     0.236650000000     2.05       
Si5      Si4+   0.285640000000     0.013610000000     0.342755000000     2.05       
Si6      Si4+   0.343205000000     0.029480000000     0.414090000000     2.05       
Si7      Si4+   0.461325000000     0.413750000000     0.413590000000     2.05       
Si8      Si4+   0.403890000000     0.434920000000     0.342740000000     2.05       
Si9      Si4+   0.387770000000     0.413605000000     0.234455000000     2.05       
Si10     Si4+   0.310290000000     0.413450000000     0.235105000000     2.05       
Si11     Si4+   0.285220000000     0.434815000000     0.341000000000     2.05       
Si12     Si4+   0.343530000000     0.413365000000     0.409665000000     2.05       
O1       O2-    0.436300000000     0.026700000000     0.372100000000    -1.025      
O2       O2-    0.404200000000     0.029350000000     0.289450000000    -1.025      
O3       O2-    0.350350000000     0.029600000000     0.235550000000    -1.025      
O4       O2-    0.298450000000     0.030550000000     0.292800000000    -1.025      
O5       O2-    0.307450000000     0.027050000000     0.388150000000    -1.025      
O6       O2-    0.371750000000     0.027650000000     0.373000000000    -1.025      
O7       O2-    0.437100000000     0.421950000000     0.368600000000    -1.025      
O8       O2-    0.404250000000     0.422400000000     0.286400000000    -1.025      
O9       O2-    0.349000000000     0.422300000000     0.235600000000    -1.025      
O10      O2-    0.295500000000     0.419300000000     0.288850000000    -1.025      
O11      O2-    0.308450000000     0.421100000000     0.384700000000    -1.025      
O12      O2-    0.372400000000     0.420300000000     0.371100000000    -1.025      
O13      O2-    0.402350000000     0.474500000000     0.343300000000    -1.025      
O14      O2-    0.288400000000     0.474050000000     0.338450000000    -1.025      
O15      O2-    0.458050000000     0.063800000000     0.444800000000    -1.025      
O16      O2-    0.454300000000     0.499150000000     0.456800000000    -1.025      
O17      O2-    0.451000000000     0.434300000000     0.461950000000    -1.025      
O18      O2-    0.344300000000     0.064900000000     0.441800000000    -1.025      
O19      O2-    0.347000000000     0.000350000000     0.454100000000    -1.025      
O20      O2-    0.347550000000     0.435450000000     0.459500000000    -1.025      
O21      O2-    0.248150000000     0.025100000000     0.354000000000    -1.025      
O22      O2-    0.248000000000     0.423600000000     0.353900000000    -1.025      
Si1      Si4+   0.038810000000     0.278250000000     0.082010000000     2.05       
Si2      Si4+   0.096420000000     0.263860000000     0.155350000000     2.05       
Si3      Si4+   0.110445000000     0.280635000000     0.265600000000     2.05       
Si4      Si4+   0.188925000000     0.281490000000     0.263350000000     2.05       
Si5      Si4+   0.214360000000     0.263610000000     0.157245000000     2.05       
Si6      Si4+   0.156795000000     0.279480000000     0.085910000000     2.05       
Si7      Si4+   0.038675000000     0.163750000000     0.086410000000     2.05       
Si8      Si4+   0.096110000000     0.184920000000     0.157260000000     2.05       
Si9      Si4+   0.112230000000     0.163605000000     0.265545000000     2.05       
Si10     Si4+   0.189710000000     0.163450000000     0.264895000000     2.05       
Si11     Si4+   0.214780000000     0.184815000000     0.159000000000     2.05       
Si12     Si4+   0.156470000000     0.163365000000     0.090335000000     2.05       
O1       O2-    0.063700000000     0.276700000000     0.127900000000    -1.025      
O2       O2-    0.095800000000     0.279350000000     0.210550000000    -1.025      
O3       O2-    0.149650000000     0.279600000000     0.264450000000    -1.025      
O4       O2-    0.201550000000     0.280550000000     0.207200000000    -1.025      
O5       O2-    0.192550000000     0.277050000000     0.111850000000    -1.025      
O6       O2-    0.128250000000     0.277650000000     0.127000000000    -1.025      
O7       O2-    0.062900000000     0.171950000000     0.131400000000    -1.025      
O8       O2-    0.095750000000     0.172400000000     0.213600000000    -1.025      
O9       O2-    0.151000000000     0.172300000000     0.264400000000    -1.025      
O10      O2-    0.204500000000     0.169300000000     0.211150000000    -1.025      
O11      O2-    0.191550000000     0.171100000000     0.115300000000    -1.025      
O12      O2-    0.127600000000     0.170300000000     0.128900000000    -1.025      
O13      O2-    0.097650000000     0.224500000000     0.156700000000    -1.025      
O14      O2-    0.211600000000     0.224050000000     0.161550000000    -1.025      
O15      O2-    0.041950000000     0.313800000000     0.055200000000    -1.025      
O16      O2-    0.045700000000     0.249150000000     0.043200000000    -1.025      
O17      O2-    0.049000000000     0.184300000000     0.038050000000    -1.025      
O18      O2-    0.155700000000     0.314900000000     0.058200000000    -1.025      
O19      O2-    0.153000000000     0.250350000000     0.045900000000    -1.025      
O20      O2-    0.152450000000     0.185450000000     0.040500000000    -1.025      
O21      O2-    0.251850000000     0.275100000000     0.146000000000    -1.025      
O22      O2-    0.252000000000     0.173600000000     0.146100000000    -1.025      
Si1      Si4+   0.211190000000     0.221750000000     0.332010000000     2.05       
Si2      Si4+   0.153580000000     0.236140000000     0.405350000000     2.05       
Si3      Si4+   0.139555000000     0.219365000000     0.015600000000     2.05       
Si4      Si4+   0.061075000000     0.218510000000     0.013350000000     2.05       
Si5      Si4+   0.035640000000     0.236390000000     0.407245000000     2.05       
Si6      Si4+   0.093205000000     0.220520000000     0.335910000000     2.05       
Si7      Si4+   0.211325000000     0.336250000000     0.336410000000     2.05       
Si8      Si4+   0.153890000000     0.315080000000     0.407260000000     2.05       
Si9      Si4+   0.137770000000     0.336395000000     0.015545000000     2.05       
Si10     Si4+   0.060290000000     0.336550000000     0.014895000000     2.05       
Si11     Si4+   0.035220000000     0.315185000000     0.409000000000     2.05       
Si12     Si4+   0.093530000000     0.336635000000     0.340335000000     2.05       
O1       O2-    0.186300000000     0.223300000000     0.377900000000    -1.025      
O2       O2-    0.154200000000     0.220650000000     0.460550000000    -1.025      
O3       O2-    0.100350000000     0.220400000000     0.014450000000    -1.025      
O4       O2-    0.048450000000     0.219450000000     0.457200000000    -1.025      
O5       O2-    0.057450000000     0.222950000000     0.361850000000    -1.025      
O6       O2-    0.121750000000     0.222350000000     0.377000000000    -1.025      
O7       O2-    0.187100000000     0.328050000000     0.381400000000    -1.025      
O8       O2-    0.154250000000     0.327600000000     0.463600000000    -1.025      
O9       O2-    0.099000000000     0.327700000000     0.014400000000    -1.025      
O10      O2-    0.045500000000     0.330700000000     0.461150000000    -1.025      
O11      O2-    0.058450000000     0.328900000000     0.365300000000    -1.025      
O12      O2-    0.122400000000     0.329700000000     0.378900000000    -1.025      
O13      O2-    0.152350000000     0.275500000000     0.406700000000    -1.025      
O14      O2-    0.038400000000     0.275950000000     0.411550000000    -1.025      
O15      O2-    0.208050000000     0.186200000000     0.305200000000    -1.025      
O16      O2-    0.204300000000     0.250850000000     0.293200000000    -1.025      
O17      O2-    0.201000000000     0.315700000000     0.288050000000    -1.025      
O18      O2-    0.094300000000     0.185100000000     0.308200000000    -1.025      
O19      O2-    0.097000000000     0.249650000000     0.295900000000    -1.025      
O20      O2-    0.097550000000     0.314550000000     0.290500000000    -1.025      
O21      O2-    0.498150000000     0.224900000000     0.396000000000    -1.025      
O22      O2-    0.498000000000     0.326400000000     0.396100000000    -1.025      
Si1      Si4+   0.211190000000     0.028250000000     0.832010000000     2.05       
Si2      Si4+   0.153580000000     0.013860000000     0.905350000000     2.05       
Si3      Si4+   0.139555000000     0.030635000000     0.515600000000     2.05       
Si4      Si4+   0.061075000000     0.031490000000     0.513350000000     2.05       
Si5      Si4+   0.035640000000     0.013610000000     0.907245000000     2.05       
Si6      Si4+   0.093205000000     0.029480000000     0.835910000000     2.05       
Si7      Si4+   0.211325000000     0.413750000000     0.836410000000     2.05       
Si8      Si4+   0.153890000000     0.434920000000     0.907260000000     2.05       
Si9      Si4+   0.137770000000     0.413605000000     0.515545000000     2.05       
Si10     Si4+   0.060290000000     0.413450000000     0.514895000000     2.05       
Si11     Si4+   0.035220000000     0.434815000000     0.909000000000     2.05       
Si12     Si4+   0.093530000000     0.413365000000     0.840335000000     2.05       
O1       O2-    0.186300000000     0.026700000000     0.877900000000    -1.025      
O2       O2-    0.154200000000     0.029350000000     0.960550000000    -1.025      
O3       O2-    0.100350000000     0.029600000000     0.514450000000    -1.025      
O4       O2-    0.048450000000     0.030550000000     0.957200000000    -1.025      
O5       O2-    0.057450000000     0.027050000000     0.861850000000    -1.025      
O6       O2-    0.121750000000     0.027650000000     0.877000000000    -1.025      
O7       O2-    0.187100000000     0.421950000000     0.881400000000    -1.025      
O8       O2-    0.154250000000     0.422400000000     0.963600000000    -1.025      
O9       O2-    0.099000000000     0.422300000000     0.514400000000    -1.025      
O10      O2-    0.045500000000     0.419300000000     0.961150000000    -1.025      
O11      O2-    0.058450000000     0.421100000000     0.865300000000    -1.025      
O12      O2-    0.122400000000     0.420300000000     0.878900000000    -1.025      
O13      O2-    0.152350000000     0.474500000000     0.906700000000    -1.025      
O14      O2-    0.038400000000     0.474050000000     0.911550000000    -1.025      
O15      O2-    0.208050000000     0.063800000000     0.805200000000    -1.025      
O16      O2-    0.204300000000     0.499150000000     0.793200000000    -1.025      
O17      O2-    0.201000000000     0.434300000000     0.788050000000    -1.025      
O18      O2-    0.094300000000     0.064900000000     0.808200000000    -1.025      
O19      O2-    0.097000000000     0.000350000000     0.795900000000    -1.025      
O20      O2-    0.097550000000     0.435450000000     0.790500000000    -1.025      
O21      O2-    0.498150000000     0.025100000000     0.896000000000    -1.025      
O22      O2-    0.498000000000     0.423600000000     0.896100000000    -1.025      
O23      O2-    0.209600000000     0.375000000000     0.823000000000    -1.025      
O24      O2-    0.094200000000     0.375000000000     0.823100000000    -1.025      
O25      O2-    0.144150000000     0.375000000000     0.528950000000    -1.025      
O26      O2-    0.054250000000     0.375000000000     0.530550000000    -1.025      
Si1      Si4+   0.038810000000     0.471750000000     0.582010000000     2.05       
Si2      Si4+   0.096420000000     0.486140000000     0.655350000000     2.05       
Si3      Si4+   0.110445000000     0.469365000000     0.765600000000     2.05       
Si4      Si4+   0.188925000000     0.468510000000     0.763350000000     2.05       
Si5      Si4+   0.214360000000     0.486390000000     0.657245000000     2.05       
Si6      Si4+   0.156795000000     0.470520000000     0.585910000000     2.05       
Si7      Si4+   0.038675000000     0.086250000000     0.586410000000     2.05       
Si8      Si4+   0.096110000000     0.065080000000     0.657260000000     2.05       
Si9      Si4+   0.112230000000     0.086395000000     0.765545000000     2.05       
Si10     Si4+   0.189710000000     0.086550000000     0.764895000000     2.05       
Si11     Si4+   0.214780000000     0.065185000000     0.659000000000     2.05       
Si12     Si4+   0.156470000000     0.086635000000     0.590335000000     2.05       
O1       O2-    0.063700000000     0.473300000000     0.627900000000    -1.025      
O2       O2-    0.095800000000     0.470650000000     0.710550000000    -1.025      
O3       O2-    0.149650000000     0.470400000000     0.764450000000    -1.025      
O4       O2-    0.201550000000     0.469450000000     0.707200000000    -1.025      
O5       O2-    0.192550000000     0.472950000000     0.611850000000    -1.025      
O6       O2-    0.128250000000     0.472350000000     0.627000000000    -1.025      
O7       O2-    0.062900000000     0.078050000000     0.631400000000    -1.025      
O8       O2-    0.095750000000     0.077600000000     0.713600000000    -1.025      
O9       O2-    0.151000000000     0.077700000000     0.764400000000    -1.025      
O10      O2-    0.204500000000     0.080700000000     0.711150000000    -1.025      
O11      O2-    0.191550000000     0.078900000000     0.615300000000    -1.025      
O12      O2-    0.127600000000     0.079700000000     0.628900000000    -1.025      
O13      O2-    0.097650000000     0.025500000000     0.656700000000    -1.025      
O14      O2-    0.211600000000     0.025950000000     0.661550000000    -1.025      
O15      O2-    0.041950000000     0.436200000000     0.555200000000    -1.025      
O16      O2-    0.045700000000     0.000850000000     0.543200000000    -1.025      
O17      O2-    0.049000000000     0.065700000000     0.538050000000    -1.025      
O18      O2-    0.155700000000     0.435100000000     0.558200000000    -1.025      
O19      O2-    0.153000000000     0.499650000000     0.545900000000    -1.025      
O20      O2-    0.152450000000     0.064550000000     0.540500000000    -1.025      
O21      O2-    0.251850000000     0.474900000000     0.646000000000    -1.025      
O22      O2-    0.252000000000     0.076400000000     0.646100000000    -1.025      
O23      O2-    0.040400000000     0.125000000000     0.573000000000    -1.025      
O24      O2-    0.155800000000     0.125000000000     0.573100000000    -1.025      
O25      O2-    0.105850000000     0.125000000000     0.778950000000    -1.025      
O26      O2-    0.195750000000     0.125000000000     0.780550000000    -1.025      
Si1      Si4+   0.461190000000     0.221750000000     0.917990000000     2.05       
Si2      Si4+   0.403580000000     0.236140000000     0.844650000000     2.05       
Si3      Si4+   0.389555000000     0.219365000000     0.734400000000     2.05       
Si4      Si4+   0.311075000000     0.218510000000     0.736650000000     2.05       
Si5      Si4+   0.285640000000     0.236390000000     0.842755000000     2.05       
Si6      Si4+   0.343205000000     0.220520000000     0.914090000000     2.05       
Si7      Si4+   0.461325000000     0.336250000000     0.913590000000     2.05       
Si8      Si4+   0.403890000000     0.315080000000     0.842740000000     2.05       
Si9      Si4+   0.387770000000     0.336395000000     0.734455000000     2.05       
Si10     Si4+   0.310290000000     0.336550000000     0.735105000000     2.05       
Si11     Si4+   0.285220000000     0.315185000000     0.841000000000     2.05       
Si12     Si4+   0.343530000000     0.336635000000     0.909665000000     2.05       
O1       O2-    0.436300000000     0.223300000000     0.872100000000    -1.025      
O2       O2-    0.404200000000     0.220650000000     0.789450000000    -1.025      
O3       O2-    0.350350000000     0.220400000000     0.735550000000    -1.025      
O4       O2-    0.298450000000     0.219450000000     0.792800000000    -1.025      
O5       O2-    0.307450000000     0.222950000000     0.888150000000    -1.025      
O6       O2-    0.371750000000     0.222350000000     0.873000000000    -1.025      
O7       O2-    0.437100000000     0.328050000000     0.868600000000    -1.025      
O8       O2-    0.404250000000     0.327600000000     0.786400000000    -1.025      
O9       O2-    0.349000000000     0.327700000000     0.735600000000    -1.025      
O10      O2-    0.295500000000     0.330700000000     0.788850000000    -1.025      
O11      O2-    0.308450000000     0.328900000000     0.884700000000    -1.025      
O12      O2-    0.372400000000     0.329700000000     0.871100000000    -1.025      
O13      O2-    0.402350000000     0.275500000000     0.843300000000    -1.025      
O14      O2-    0.288400000000     0.275950000000     0.838450000000    -1.025      
O15      O2-    0.458050000000     0.186200000000     0.944800000000    -1.025      
O16      O2-    0.454300000000     0.250850000000     0.956800000000    -1.025      
O17      O2-    0.451000000000     0.315700000000     0.961950000000    -1.025      
O18      O2-    0.344300000000     0.185100000000     0.941800000000    -1.025      
O19      O2-    0.347000000000     0.249650000000     0.954100000000    -1.025      
O20      O2-    0.347550000000     0.314550000000     0.959500000000    -1.025      
O21      O2-    0.248150000000     0.224900000000     0.854000000000    -1.025      
O22      O2-    0.248000000000     0.326400000000     0.853900000000    -1.025      
O23      O2-    0.459600000000     0.375000000000     0.927000000000    -1.025      
O24      O2-    0.344200000000     0.375000000000     0.926900000000    -1.025      
O25      O2-    0.394150000000     0.375000000000     0.721050000000    -1.025      
O26      O2-    0.304250000000     0.375000000000     0.719450000000    -1.025      
Si1      Si4+   0.288810000000     0.278250000000     0.667990000000     2.05       
Si2      Si4+   0.346420000000     0.263860000000     0.594650000000     2.05       
Si3      Si4+   0.360445000000     0.280635000000     0.984400000000     2.05       
Si4      Si4+   0.438925000000     0.281490000000     0.986650000000     2.05       
Si5      Si4+   0.464360000000     0.263610000000     0.592755000000     2.05       
Si6      Si4+   0.406795000000     0.279480000000     0.664090000000     2.05       
Si7      Si4+   0.288675000000     0.163750000000     0.663590000000     2.05       
Si8      Si4+   0.346110000000     0.184920000000     0.592740000000     2.05       
Si9      Si4+   0.362230000000     0.163605000000     0.984455000000     2.05       
Si10     Si4+   0.439710000000     0.163450000000     0.985105000000     2.05       
Si11     Si4+   0.464780000000     0.184815000000     0.591000000000     2.05       
Si12     Si4+   0.406470000000     0.163365000000     0.659665000000     2.05       
O1       O2-    0.313700000000     0.276700000000     0.622100000000    -1.025      
O2       O2-    0.345800000000     0.279350000000     0.539450000000    -1.025      
O3       O2-    0.399650000000     0.279600000000     0.985550000000    -1.025      
O4       O2-    0.451550000000     0.280550000000     0.542800000000    -1.025      
O5       O2-    0.442550000000     0.277050000000     0.638150000000    -1.025      
O6       O2-    0.378250000000     0.277650000000     0.623000000000    -1.025      
O7       O2-    0.312900000000     0.171950000000     0.618600000000    -1.025      
O8       O2-    0.345750000000     0.172400000000     0.536400000000    -1.025      
O9       O2-    0.401000000000     0.172300000000     0.985600000000    -1.025      
O10      O2-    0.454500000000     0.169300000000     0.538850000000    -1.025      
O11      O2-    0.441550000000     0.171100000000     0.634700000000    -1.025      
O12      O2-    0.377600000000     0.170300000000     0.621100000000    -1.025      
O13      O2-    0.347650000000     0.224500000000     0.593300000000    -1.025      
O14      O2-    0.461600000000     0.224050000000     0.588450000000    -1.025      
O15      O2-    0.291950000000     0.313800000000     0.694800000000    -1.025      
O16      O2-    0.295700000000     0.249150000000     0.706800000000    -1.025      
O17      O2-    0.299000000000     0.184300000000     0.711950000000    -1.025      
O18      O2-    0.405700000000     0.314900000000     0.691800000000    -1.025      
O19      O2-    0.403000000000     0.250350000000     0.704100000000    -1.025      
O20      O2-    0.402450000000     0.185450000000     0.709500000000    -1.025      
O21      O2-    0.001850000000     0.275100000000     0.604000000000    -1.025      
O22      O2-    0.002000000000     0.173600000000     0.603900000000    -1.025      
O23      O2-    0.290400000000     0.125000000000     0.677000000000    -1.025      
O24      O2-    0.405800000000     0.125000000000     0.676900000000    -1.025      
O25      O2-    0.355850000000     0.125000000000     0.971050000000    -1.025      
O26      O2-    0.445750000000     0.125000000000     0.969450000000    -1.025      
Si1      Si4+   0.288810000000     0.471750000000     0.667990000000     2.05       
Si2      Si4+   0.346420000000     0.486140000000     0.594650000000     2.05       
Si3      Si4+   0.360445000000     0.469365000000     0.984400000000     2.05       
Si4      Si4+   0.438925000000     0.468510000000     0.986650000000     2.05       
Si5      Si4+   0.464360000000     0.486390000000     0.592755000000     2.05       
Si6      Si4+   0.406795000000     0.470520000000     0.664090000000     2.05       
Si7      Si4+   0.288675000000     0.086250000000     0.663590000000     2.05       
Si8      Si4+   0.346110000000     0.065080000000     0.592740000000     2.05       
Si9      Si4+   0.362230000000     0.086395000000     0.984455000000     2.05       
Si10     Si4+   0.439710000000     0.086550000000     0.985105000000     2.05       
Si11     Si4+   0.464780000000     0.065185000000     0.591000000000     2.05       
Si12     Si4+   0.406470000000     0.086635000000     0.659665000000     2.05       
O1       O2-    0.313700000000     0.473300000000     0.622100000000    -1.025      
O2       O2-    0.345800000000     0.470650000000     0.539450000000    -1.025      
O3       O2-    0.399650000000     0.470400000000     0.985550000000    -1.025      
O4       O2-    0.451550000000     0.469450000000     0.542800000000    -1.025      
O5       O2-    0.442550000000     0.472950000000     0.638150000000    -1.025      
O6       O2-    0.378250000000     0.472350000000     0.623000000000    -1.025      
O7       O2-    0.312900000000     0.078050000000     0.618600000000    -1.025      
O8       O2-    0.345750000000     0.077600000000     0.536400000000    -1.025      
O9       O2-    0.401000000000     0.077700000000     0.985600000000    -1.025      
O10      O2-    0.454500000000     0.080700000000     0.538850000000    -1.025      
O11      O2-    0.441550000000     0.078900000000     0.634700000000    -1.025      
O12      O2-    0.377600000000     0.079700000000     0.621100000000    -1.025      
O13      O2-    0.347650000000     0.025500000000     0.593300000000    -1.025      
O14      O2-    0.461600000000     0.025950000000     0.588450000000    -1.025      
O15      O2-    0.291950000000     0.436200000000     0.694800000000    -1.025      
O16      O2-    0.295700000000     0.000850000000     0.706800000000    -1.025      
O17      O2-    0.299000000000     0.065700000000     0.711950000000    -1.025      
O18      O2-    0.405700000000     0.435100000000     0.691800000000    -1.025      
O19      O2-    0.403000000000     0.499650000000     0.704100000000    -1.025      
O20      O2-    0.402450000000     0.064550000000     0.709500000000    -1.025      
O21      O2-    0.001850000000     0.474900000000     0.604000000000    -1.025      
O22      O2-    0.002000000000     0.076400000000     0.603900000000    -1.025      
Si1      Si4+   0.461190000000     0.028250000000     0.917990000000     2.05       
Si2      Si4+   0.403580000000     0.013860000000     0.844650000000     2.05       
Si3      Si4+   0.389555000000     0.030635000000     0.734400000000     2.05       
Si4      Si4+   0.311075000000     0.031490000000     0.736650000000     2.05       
Si5      Si4+   0.285640000000     0.013610000000     0.842755000000     2.05       
Si6      Si4+   0.343205000000     0.029480000000     0.914090000000     2.05       
Si7      Si4+   0.461325000000     0.413750000000     0.913590000000     2.05       
Si8      Si4+   0.403890000000     0.434920000000     0.842740000000     2.05       
Si9      Si4+   0.387770000000     0.413605000000     0.734455000000     2.05       
Si10     Si4+   0.310290000000     0.413450000000     0.735105000000     2.05       
Si11     Si4+   0.285220000000     0.434815000000     0.841000000000     2.05       
Si12     Si4+   0.343530000000     0.413365000000     0.909665000000     2.05       
O1       O2-    0.436300000000     0.026700000000     0.872100000000    -1.025      
O2       O2-    0.404200000000     0.029350000000     0.789450000000    -1.025      
O3       O2-    0.350350000000     0.029600000000     0.735550000000    -1.025      
O4       O2-    0.298450000000     0.030550000000     0.792800000000    -1.025      
O5       O2-    0.307450000000     0.027050000000     0.888150000000    -1.025      
O6       O2-    0.371750000000     0.027650000000     0.873000000000    -1.025      
O7       O2-    0.437100000000     0.421950000000     0.868600000000    -1.025      
O8       O2-    0.404250000000     0.422400000000     0.786400000000    -1.025      
O9       O2-    0.349000000000     0.422300000000     0.735600000000    -1.025      
O10      O2-    0.295500000000     0.419300000000     0.788850000000    -1.025      
O11      O2-    0.308450000000     0.421100000000     0.884700000000    -1.025      
O12      O2-    0.372400000000     0.420300000000     0.871100000000    -1.025      
O13      O2-    0.402350000000     0.474500000000     0.843300000000    -1.025      
O14      O2-    0.288400000000     0.474050000000     0.838450000000    -1.025      
O15      O2-    0.458050000000     0.063800000000     0.944800000000    -1.025      
O16      O2-    0.454300000000     0.499150000000     0.956800000000    -1.025      
O17      O2-    0.451000000000     0.434300000000     0.961950000000    -1.025      
O18      O2-    0.344300000000     0.064900000000     0.941800000000    -1.025      
O19      O2-    0.347000000000     0.000350000000     0.954100000000    -1.025      
O20      O2-    0.347550000000     0.435450000000     0.959500000000    -1.025      
O21      O2-    0.248150000000     0.025100000000     0.854000000000    -1.025      
O22      O2-    0.248000000000     0.423600000000     0.853900000000    -1.025      
Si1      Si4+   0.038810000000     0.278250000000     0.582010000000     2.05       
Si2      Si4+   0.096420000000     0.263860000000     0.655350000000     2.05       
Si3      Si4+   0.110445000000     0.280635000000     0.765600000000     2.05       
Si4      Si4+   0.188925000000     0.281490000000     0.763350000000     2.05       
Si5      Si4+   0.214360000000     0.263610000000     0.657245000000     2.05       
Si6      Si4+   0.156795000000     0.279480000000     0.585910000000     2.05       
Si7      Si4+   0.038675000000     0.163750000000     0.586410000000     2.05       
Si8      Si4+   0.096110000000     0.184920000000     0.657260000000     2.05       
Si9      Si4+   0.112230000000     0.163605000000     0.765545000000     2.05       
Si10     Si4+   0.189710000000     0.163450000000     0.764895000000     2.05       
Si11     Si4+   0.214780000000     0.184815000000     0.659000000000     2.05       
Si12     Si4+   0.156470000000     0.163365000000     0.590335000000     2.05       
O1       O2-    0.063700000000     0.276700000000     0.627900000000    -1.025      
O2       O2-    0.095800000000     0.279350000000     0.710550000000    -1.025      
O3       O2-    0.149650000000     0.279600000000     0.764450000000    -1.025      
O4       O2-    0.201550000000     0.280550000000     0.707200000000    -1.025      
O5       O2-    0.192550000000     0.277050000000     0.611850000000    -1.025      
O6       O2-    0.128250000000     0.277650000000     0.627000000000    -1.025      
O7       O2-    0.062900000000     0.171950000000     0.631400000000    -1.025      
O8       O2-    0.095750000000     0.172400000000     0.713600000000    -1.025      
O9       O2-    0.151000000000     0.172300000000     0.764400000000    -1.025      
O10      O2-    0.204500000000     0.169300000000     0.711150000000    -1.025      
O11      O2-    0.191550000000     0.171100000000     0.615300000000    -1.025      
O12      O2-    0.127600000000     0.170300000000     0.628900000000    -1.025      
O13      O2-    0.097650000000     0.224500000000     0.656700000000    -1.025      
O14      O2-    0.211600000000     0.224050000000     0.661550000000    -1.025      
O15      O2-    0.041950000000     0.313800000000     0.555200000000    -1.025      
O16      O2-    0.045700000000     0.249150000000     0.543200000000    -1.025      
O17      O2-    0.049000000000     0.184300000000     0.538050000000    -1.025      
O18      O2-    0.155700000000     0.314900000000     0.558200000000    -1.025      
O19      O2-    0.153000000000     0.250350000000     0.545900000000    -1.025      
O20      O2-    0.152450000000     0.185450000000     0.540500000000    -1.025      
O21      O2-    0.251850000000     0.275100000000     0.646000000000    -1.025      
O22      O2-    0.252000000000     0.173600000000     0.646100000000    -1.025      
Si1      Si4+   0.211190000000     0.221750000000     0.832010000000     2.05       
Si2      Si4+   0.153580000000     0.236140000000     0.905350000000     2.05       
Si3      Si4+   0.139555000000     0.219365000000     0.515600000000     2.05       
Si4      Si4+   0.061075000000     0.218510000000     0.513350000000     2.05       
Si5      Si4+   0.035640000000     0.236390000000     0.907245000000     2.05       
Si6      Si4+   0.093205000000     0.220520000000     0.835910000000     2.05       
Si7      Si4+   0.211325000000     0.336250000000     0.836410000000     2.05       
Si8      Si4+   0.153890000000     0.315080000000     0.907260000000     2.05       
Si9      Si4+   0.137770000000     0.336395000000     0.515545000000     2.05       
Si10     Si4+   0.060290000000     0.336550000000     0.514895000000     2.05       
Si11     Si4+   0.035220000000     0.315185000000     0.909000000000     2.05       
Si12     Si4+   0.093530000000     0.336635000000     0.840335000000     2.05       
O1       O2-    0.186300000000     0.223300000000     0.877900000000    -1.025      
O2       O2-    0.154200000000     0.220650000000     0.960550000000    -1.025      
O3       O2-    0.100350000000     0.220400000000     0.514450000000    -1.025      
O4       O2-    0.048450000000     0.219450000000     0.957200000000    -1.025      
O5       O2-    0.057450000000     0.222950000000     0.861850000000    -1.025      
O6       O2-    0.121750000000     0.222350000000     0.877000000000    -1.025      
O7       O2-    0.187100000000     0.328050000000     0.881400000000    -1.025      
O8       O2-    0.154250000000     0.327600000000     0.963600000000    -1.025      
O9       O2-    0.099000000000     0.327700000000     0.514400000000    -1.025      
O10      O2-    0.045500000000     0.330700000000     0.961150000000    -1.025      
O11      O2-    0.058450000000     0.328900000000     0.865300000000    -1.025      
O12      O2-    0.122400000000     0.329700000000     0.878900000000    -1.025      
O13      O2-    0.152350000000     0.275500000000     0.906700000000    -1.025      
O14      O2-    0.038400000000     0.275950000000     0.911550000000    -1.025      
O15      O2-    0.208050000000     0.186200000000     0.805200000000    -1.025      
O16      O2-    0.204300000000     0.250850000000     0.793200000000    -1.025      
O17      O2-    0.201000000000     0.315700000000     0.788050000000    -1.025      
O18      O2-    0.094300000000     0.185100000000     0.808200000000    -1.025      
O19      O2-    0.097000000000     0.249650000000     0.795900000000    -1.025      
O20      O2-    0.097550000000     0.314550000000     0.790500000000    -1.025      
O21      O2-    0.498150000000     0.224900000000     0.896000000000    -1.025      
O22      O2-    0.498000000000     0.326400000000     0.896100000000    -1.025      
Si1      Si4+   0.211190000000     0.528250000000     0.332010000000     2.05       
Si2      Si4+   0.153580000000     0.513860000000     0.405350000000     2.05       
Si3      Si4+   0.139555000000     0.530635000000     0.015600000000     2.05       
Si4      Si4+   0.061075000000     0.531490000000     0.013350000000     2.05       
Si5      Si4+   0.035640000000     0.513610000000     0.407245000000     2.05       
Si6      Si4+   0.093205000000     0.529480000000     0.335910000000     2.05       
Si7      Si4+   0.211325000000     0.913750000000     0.336410000000     2.05       
Si8      Si4+   0.153890000000     0.934920000000     0.407260000000     2.05       
Si9      Si4+   0.137770000000     0.913605000000     0.015545000000     2.05       
Si10     Si4+   0.060290000000     0.913450000000     0.014895000000     2.05       
Si11     Si4+   0.035220000000     0.934815000000     0.409000000000     2.05       
Si12     Si4+   0.093530000000     0.913365000000     0.340335000000     2.05       
O1       O2-    0.186300000000     0.526700000000     0.377900000000    -1.025      
O2       O2-    0.154200000000     0.529350000000     0.460550000000    -1.025      
O3       O2-    0.100350000000     0.529600000000     0.014450000000    -1.025      
O4       O2-    0.048450000000     0.530550000000     0.457200000000    -1.025      
O5       O2-    0.057450000000     0.527050000000     0.361850000000    -1.025      
O6       O2-    0.121750000000     0.527650000000     0.377000000000    -1.025      
O7       O2-    0.187100000000     0.921950000000     0.381400000000    -1.025      
O8       O2-    0.154250000000     0.922400000000     0.463600000000    -1.025      
O9       O2-    0.099000000000     0.922300000000     0.014400000000    -1.025      
O10      O2-    0.045500000000     0.919300000000     0.461150000000    -1.025      
O11      O2-    0.058450000000     0.921100000000     0.365300000000    -1.025      
O12      O2-    0.122400000000     0.920300000000     0.378900000000    -1.025      
O13      O2-    0.152350000000     0.974500000000     0.406700000000    -1.025      
O14      O2-    0.038400000000     0.974050000000     0.411550000000    -1.025      
O15      O2-    0.208050000000     0.563800000000     0.305200000000    -1.025      
O16      O2-    0.204300000000     0.999150000000     0.293200000000    -1.025      
O17      O2-    0.201000000000     0.934300000000     0.288050000000    -1.025      
O18      O2-    0.094300000000     0.564900000000     0.308200000000    -1.025      
O19      O2-    0.097000000000     0.500350000000     0.295900000000    -1.025      
O20      O2-    0.097550000000     0.935450000000     0.290500000000    -1.025      
O21      O2-    0.498150000000     0.525100000000     0.396000000000    -1.025      
O22      O2-    0.498000000000     0.923600000000     0.396100000000    -1.025      
O23      O2-    0.209600000000     0.875000000000     0.323000000000    -1.025      
O24      O2-    0.094200000000     0.875000000000     0.323100000000    -1.025      
O25      O2-    0.144150000000     0.875000000000     0.028950000000    -1.025      
O26      O2-    0.054250000000     0.875000000000     0.030550000000    -1.025      
Si1      Si4+   0.038810000000     0.971750000000     0.082010000000     2.05       
Si2      Si4+   0.096420000000     0.986140000000     0.155350000000     2.05       
Si3      Si4+   0.110445000000     0.969365000000     0.265600000000     2.05       
Si4      Si4+   0.188925000000     0.968510000000     0.263350000000     2.05       
Si5      Si4+   0.214360000000     0.986390000000     0.157245000000     2.05       
Si6      Si4+   0.156795000000     0.970520000000     0.085910000000     2.05       
Si7      Si4+   0.038675000000     0.586250000000     0.086410000000     2.05       
Si8      Si4+   0.096110000000     0.565080000000     0.157260000000     2.05       
Si9      Si4+   0.112230000000     0.586395000000     0.265545000000     2.05       
Si10     Si4+   0.189710000000     0.586550000000     0.264895000000     2.05       
Si11     Si4+   0.214780000000     0.565185000000     0.159000000000     2.05       
Si12     Si4+   0.156470000000     0.586635000000     0.090335000000     2.05       
O1       O2-    0.063700000000     0.973300000000     0.127900000000    -1.025      
O2       O2-    0.095800000000     0.970650000000     0.210550000000    -1.025      
O3       O2-    0.149650000000     0.970400000000     0.264450000000    -1.025      
O4       O2-    0.201550000000     0.969450000000     0.207200000000    -1.025      
O5       O2-    0.192550000000     0.972950000000     0.111850000000    -1.025      
O6       O2-    0.128250000000     0.972350000000     0.127000000000    -1.025      
O7       O2-    0.062900000000     0.578050000000     0.131400000000    -1.025      
O8       O2-    0.095750000000     0.577600000000     0.213600000000    -1.025      
O9       O2-    0.151000000000     0.577700000000     0.264400000000    -1.025      
O10      O2-    0.204500000000     0.580700000000     0.211150000000    -1.025      
O11      O2-    0.191550000000     0.578900000000     0.115300000000    -1.025      
O12      O2-    0.127600000000     0.579700000000     0.128900000000    -1.025      
O13      O2-    0.097650000000     0.525500000000     0.156700000000    -1.025      
O14      O2-    0.211600000000     0.525950000000     0.161550000000    -1.025      
O15      O2-    0.041950000000     0.936200000000     0.055200000000    -1.025      
O16      O2-    0.045700000000     0.500850000000     0.043200000000    -1.025      
O17      O2-    0.049000000000     0.565700000000     0.038050000000    -1.025      
O18      O2-    0.155700000000     0.935100000000     0.058200000000    -1.025      
O19      O2-    0.153000000000     0.999650000000     0.045900000000    -1.025      
O20      O2-    0.152450000000     0.564550000000     0.040500000000    -1.025      
O21      O2-    0.251850000000     0.974900000000     0.146000000000    -1.025      
O22      O2-    0.252000000000     0.576400000000     0.146100000000    -1.025      
O23      O2-    0.040400000000     0.625000000000     0.073000000000    -1.025      
O24      O2-    0.155800000000     0.625000000000     0.073100000000    -1.025      
O25      O2-    0.105850000000     0.625000000000     0.278950000000    -1.025      
O26      O2-    0.195750000000     0.625000000000     0.280550000000    -1.025      
Si1      Si4+   0.461190000000     0.721750000000     0.417990000000     2.05       
Si2      Si4+   0.403580000000     0.736140000000     0.344650000000     2.05       
Si3      Si4+   0.389555000000     0.719365000000     0.234400000000     2.05       
Si4      Si4+   0.311075000000     0.718510000000     0.236650000000     2.05       
Si5      Si4+   0.285640000000     0.736390000000     0.342755000000     2.05       
Si6      Si4+   0.343205000000     0.720520000000     0.414090000000     2.05       
Si7      Si4+   0.461325000000     0.836250000000     0.413590000000     2.05       
Si8      Si4+   0.403890000000     0.815080000000     0.342740000000     2.05       
Si9      Si4+   0.387770000000     0.836395000000     0.234455000000     2.05       
Si10     Si4+   0.310290000000     0.836550000000     0.235105000000     2.05       
Si11     Si4+   0.285220000000     0.815185000000     0.341000000000     2.05       
Si12     Si4+   0.343530000000     0.836635000000     0.409665000000     2.05       
O1       O2-    0.436300000000     0.723300000000     0.372100000000    -1.025      
O2       O2-    0.404200000000     0.720650000000     0.289450000000    -1.025      
O3       O2-    0.350350000000     0.720400000000     0.235550000000    -1.025      
O4       O2-    0.298450000000     0.719450000000     0.292800000000    -1.025      
O5       O2-    0.307450000000     0.722950000000     0.388150000000    -1.025      
O6       O2-    0.371750000000     0.722350000000     0.373000000000    -1.025      
O7       O2-    0.437100000000     0.828050000000     0.368600000000    -1.025      
O8       O2-    0.404250000000     0.827600000000     0.286400000000    -1.025      
O9       O2-    0.349000000000     0.827700000000     0.235600000000    -1.025      
O10      O2-    0.295500000000     0.830700000000     0.288850000000    -1.025      
O11      O2-    0.308450000000     0.828900000000     0.384700000000    -1.025      
O12      O2-    0.372400000000     0.829700000000     0.371100000000    -1.025      
O13      O2-    0.402350000000     0.775500000000     0.343300000000    -1.025      
O14      O2-    0.288400000000     0.775950000000     0.338450000000    -1.025      
O15      O2-    0.458050000000     0.686200000000     0.444800000000    -1.025      
O16      O2-    0.454300000000     0.750850000000     0.456800000000    -1.025      
O17      O2-    0.451000000000     0.815700000000     0.461950000000    -1.025      
O18      O2-    0.344300000000     0.685100000000     0.441800000000    -1.025      
O19      O2-    0.347000000000     0.749650000000     0.454100000000    -1.025      
O20      O2-    0.347550000000     0.814550000000     0.459500000000    -1.025      
O21      O2-    0.248150000000     0.724900000000     0.354000000000    -1.025      
O22      O2-    0.248000000000     0.826400000000     0.353900000000    -1.025      
O23      O2-    0.459600000000     0.875000000000     0.427000000000    -1.025      
O24      O2-    0.344200000000     0.875000000000     0.426900000000    -1.025      
O25      O2-    0.394150000000     0.875000000000     0.221050000000    -1.025      
O26      O2-    0.304250000000     0.875000000000     0.219450000000    -1.025      
Si1      Si4+   0.288810000000     0.778250000000     0.167990000000     2.05       
Si2      Si4+   0.346420000000     0.763860000000     0.094650000000     2.05       
Si3      Si4+   0.360445000000     0.780635000000     0.484400000000     2.05       
Si4      Si4+   0.438925000000     0.781490000000     0.486650000000     2.05       
Si5      Si4+   0.464360000000     0.763610000000     0.092755000000     2.05       
Si6      Si4+   0.406795000000     0.779480000000     0.164090000000     2.05       
Si7      Si4+   0.288675000000     0.663750000000     0.163590000000     2.05       
Si8      Si4+   0.346110000000     0.684920000000     0.092740000000     2.05       
Si9      Si4+   0.362230000000     0.663605000000     0.484455000000     2.05       
Si10     Si4+   0.439710000000     0.663450000000     0.485105000000     2.05       
Si11     Si4+   0.464780000000     0.684815000000     0.091000000000     2.05       
Si12     Si4+   0.406470000000     0.663365000000     0.159665000000     2.05       
O1       O2-    0.313700000000     0.776700000000     0.122100000000    -1.025      
O2       O2-    0.345800000000     0.779350000000     0.039450000000    -1.025      
O3       O2-    0.399650000000     0.779600000000     0.485550000000    -1.025      
O4       O2-    0.451550000000     0.780550000000     0.042800000000    -1.025      
O5       O2-    0.442550000000     0.777050000000     0.138150000000    -1.025      
O6       O2-    0.378250000000     0.777650000000     0.123000000000    -1.025      
O7       O2-    0.312900000000     0.671950000000     0.118600000000    -1.025      
O8       O2-    0.345750000000     0.672400000000     0.036400000000    -1.025      
O9       O2-    0.401000000000     0.672300000000     0.485600000000    -1.025      
O10      O2-    0.454500000000     0.669300000000     0.038850000000    -1.025      
O11      O2-    0.441550000000     0.671100000000     0.134700000000    -1.025      
O12      O2-    0.377600000000     0.670300000000     0.121100000000    -1.025      
O13      O2-    0.347650000000     0.724500000000     0.093300000000    -1.025      
O14      O2-    0.461600000000     0.724050000000     0.088450000000    -1.025      
O15      O2-    0.291950000000     0.813800000000     0.194800000000    -1.025      
O16      O2-    0.295700000000     0.749150000000     0.206800000000    -1.025      
O17      O2-    0.299000000000     0.684300000000     0.211950000000    -1.025      
O18      O2-    0.405700000000     0.814900000000     0.191800000000    -1.025      
O19      O2-    0.403000000000     0.750350000000     0.204100000000    -1.025      
O20      O2-    0.402450000000     0.685450000000     0.209500000000    -1.025      
O21      O2-    0.001850000000     0.775100000000     0.104000000000    -1.025      
O22      O2-    0.002000000000     0.673600000000     0.103900000000    -1.025      
O23      O2-    0.290400000000     0.625000000000     0.177000000000    -1.025      
O24      O2-    0.405800000000     0.625000000000     0.176900000000    -1.025      
O25      O2-    0.355850000000     0.625000000000     0.471050000000    -1.025      
O26      O2-    0.445750000000     0.625000000000     0.469450000000    -1.025      
Si1      Si4+   0.288810000000     0.971750000000     0.167990000000     2.05       
Si2      Si4+   0.346420000000     0.986140000000     0.094650000000     2.05       
Si3      Si4+   0.360445000000     0.969365000000     0.484400000000     2.05       
Si4      Si4+   0.438925000000     0.968510000000     0.486650000000     2.05       
Si5      Si4+   0.464360000000     0.986390000000     0.092755000000     2.05       
Si6      Si4+   0.406795000000     0.970520000000     0.164090000000     2.05       
Si7      Si4+   0.288675000000     0.586250000000     0.163590000000     2.05       
Si8      Si4+   0.346110000000     0.565080000000     0.092740000000     2.05       
Si9      Si4+   0.362230000000     0.586395000000     0.484455000000     2.05       
Si10     Si4+   0.439710000000     0.586550000000     0.485105000000     2.05       
Si11     Si4+   0.464780000000     0.565185000000     0.091000000000     2.05       
Si12     Si4+   0.406470000000     0.586635000000     0.159665000000     2.05       
O1       O2-    0.313700000000     0.973300000000     0.122100000000    -1.025      
O2       O2-    0.345800000000     0.970650000000     0.039450000000    -1.025      
O3       O2-    0.399650000000     0.970400000000     0.485550000000    -1.025      
O4       O2-    0.451550000000     0.969450000000     0.042800000000    -1.025      
O5       O2-    0.442550000000     0.972950000000     0.138150000000    -1.025      
O6       O2-    0.378250000000     0.972350000000     0.123000000000    -1.025      
O7       O2-    0.312900000000     0.578050000000     0.118600000000    -1.025      
O8       O2-    0.345750000000     0.577600000000     0.036400000000    -1.025      
O9       O2-    0.401000000000     0.577700000000     0.485600000000    -1.025      
O10      O2-    0.454500000000     0.580700000000     0.038850000000    -1.025      
O11      O2-    0.441550000000     0.578900000000     0.134700000000    -1.025      
O12      O2-    0.377600000000     0.579700000000     0.121100000000    -1.025      
O13      O2-    0.347650000000     0.525500000000     0.093300000000    -1.025      
O14      O2-    0.461600000000     0.525950000000     0.088450000000    -1.025      
O15      O2-    0.291950000000     0.936200000000     0.194800000000    -1.025      
O16      O2-    0.295700000000     0.500850000000     0.206800000000    -1.025      
O17      O2-    0.299000000000     0.565700000000     0.211950000000    -1.025      
O18      O2-    0.405700000000     0.935100000000     0.191800000000    -1.025      
O19      O2-    0.403000000000     0.999650000000     0.204100000000    -1.025      
O20      O2-    0.402450000000     0.564550000000     0.209500000000    -1.025      
O21      O2-    0.001850000000     0.974900000000     0.104000000000    -1.025      
O22      O2-    0.002000000000     0.576400000000     0.103900000000    -1.025      
Si1      Si4+   0.461190000000     0.528250000000     0.417990000000     2.05       
Si2      Si4+   0.403580000000     0.513860000000     0.344650000000     2.05       
Si3      Si4+   0.389555000000     0.530635000000     0.234400000000     2.05       
Si4      Si4+   0.311075000000     0.531490000000     0.236650000000     2.05       
Si5      Si4+   0.285640000000     0.513610000000     0.342755000000     2.05       
Si6      Si4+   0.343205000000     0.529480000000     0.414090000000     2.05       
Si7      Si4+   0.461325000000     0.913750000000     0.413590000000     2.05       
Si8      Si4+   0.403890000000     0.934920000000     0.342740000000     2.05       
Si9      Si4+   0.387770000000     0.913605000000     0.234455000000     2.05       
Si10     Si4+   0.310290000000     0.913450000000     0.235105000000     2.05       
Si11     Si4+   0.285220000000     0.934815000000     0.341000000000     2.05       
Si12     Si4+   0.343530000000     0.913365000000     0.409665000000     2.05       
O1       O2-    0.436300000000     0.526700000000     0.372100000000    -1.025      
O2       O2-    0.404200000000     0.529350000000     0.289450000000    -1.025      
O3       O2-    0.350350000000     0.529600000000     0.235550000000    -1.025      
O4       O2-    0.298450000000     0.530550000000     0.292800000000    -1.025      
O5       O2-    0.307450000000     0.527050000000     0.388150000000    -1.025      
O6       O2-    0.371750000000     0.527650000000     0.373000000000    -1.025      
O7       O2-    0.437100000000     0.921950000000     0.368600000000    -1.025      
O8       O2-    0.404250000000     0.922400000000     0.286400000000    -1.025      
O9       O2-    0.349000000000     0.922300000000     0.235600000000    -1.025      
O10      O2-    0.295500000000     0.919300000000     0.288850000000    -1.025      
O11      O2-    0.308450000000     0.921100000000     0.384700000000    -1.025      
O12      O2-    0.372400000000     0.920300000000     0.371100000000    -1.025      
O13      O2-    0.402350000000     0.974500000000     0.343300000000    -1.025      
O14      O2-    0.288400000000     0.974050000000     0.338450000000    -1.025      
O15      O2-    0.458050000000     0.563800000000     0.444800000000    -1.025      
O16      O2-    0.454300000000     0.999150000000     0.456800000000    -1.025      
O17      O2-    0.451000000000     0.934300000000     0.461950000000    -1.025      
O18      O2-    0.344300000000     0.564900000000     0.441800000000    -1.025      
O19      O2-    0.347000000000     0.500350000000     0.454100000000    -1.025      
O20      O2-    0.347550000000     0.935450000000     0.459500000000    -1.025      
O21      O2-    0.248150000000     0.525100000000     0.354000000000    -1.025      
O22      O2-    0.248000000000     0.923600000000     0.353900000000    -1.025      
Si1      Si4+   0.038810000000     0.778250000000     0.082010000000     2.05       
Si2      Si4+   0.096420000000     0.763860000000     0.155350000000     2.05       
Si3      Si4+   0.110445000000     0.780635000000     0.265600000000     2.05       
Si4      Si4+   0.188925000000     0.781490000000     0.263350000000     2.05       
Si5      Si4+   0.214360000000     0.763610000000     0.157245000000     2.05       
Si6      Si4+   0.156795000000     0.779480000000     0.085910000000     2.05       
Si7      Si4+   0.038675000000     0.663750000000     0.086410000000     2.05       
Si8      Si4+   0.096110000000     0.684920000000     0.157260000000     2.05       
Si9      Si4+   0.112230000000     0.663605000000     0.265545000000     2.05       
Si10     Si4+   0.189710000000     0.663450000000     0.264895000000     2.05       
Si11     Si4+   0.214780000000     0.684815000000     0.159000000000     2.05       
Si12     Si4+   0.156470000000     0.663365000000     0.090335000000     2.05       
O1       O2-    0.063700000000     0.776700000000     0.127900000000    -1.025      
O2       O2-    0.095800000000     0.779350000000     0.210550000000    -1.025      
O3       O2-    0.149650000000     0.779600000000     0.264450000000    -1.025      
O4       O2-    0.201550000000     0.780550000000     0.207200000000    -1.025      
O5       O2-    0.192550000000     0.777050000000     0.111850000000    -1.025      
O6       O2-    0.128250000000     0.777650000000     0.127000000000    -1.025      
O7       O2-    0.062900000000     0.671950000000     0.131400000000    -1.025      
O8       O2-    0.095750000000     0.672400000000     0.213600000000    -1.025      
O9       O2-    0.151000000000     0.672300000000     0.264400000000    -1.025      
O10      O2-    0.204500000000     0.669300000000     0.211150000000    -1.025      
O11      O2-    0.191550000000     0.671100000000     0.115300000000    -1.025      
O12      O2-    0.127600000000     0.670300000000     0.128900000000    -1.025      
O13      O2-    0.097650000000     0.724500000000     0.156700000000    -1.025      
O14      O2-    0.211600000000     0.724050000000     0.161550000000    -1.025      
O15      O2-    0.041950000000     0.813800000000     0.055200000000    -1.025      
O16      O2-    0.045700000000     0.749150000000     0.043200000000    -1.025      
O17      O2-    0.049000000000     0.684300000000     0.038050000000    -1.025      
O18      O2-    0.155700000000     0.814900000000     0.058200000000    -1.025      
O19      O2-    0.153000000000     0.750350000000     0.045900000000    -1.025      
O20      O2-    0.152450000000     0.685450000000     0.040500000000    -1.025      
O21      O2-    0.251850000000     0.775100000000     0.146000000000    -1.025      
O22      O2-    0.252000000000     0.673600000000     0.146100000000    -1.025      
Si1      Si4+   0.211190000000     0.721750000000     0.332010000000     2.05       
Si2      Si4+   0.153580000000     0.736140000000     0.405350000000     2.05       
Si3      Si4+   0.139555000000     0.719365000000     0.015600000000     2.05       
Si4      Si4+   0.061075000000     0.718510000000     0.013350000000     2.05       
Si5      Si4+   0.035640000000     0.736390000000     0.407245000000     2.05       
Si6      Si4+   0.093205000000     0.720520000000     0.335910000000     2.05       
Si7      Si4+   0.211325000000     0.836250000000     0.336410000000     2.05       
Si8      Si4+   0.153890000000     0.815080000000     0.407260000000     2.05       
Si9      Si4+   0.137770000000     0.836395000000     0.015545000000     2.05       
Si10     Si4+   0.060290000000     0.836550000000     0.014895000000     2.05       
Si11     Si4+   0.035220000000     0.815185000000     0.409000000000     2.05       
Si12     Si4+   0.093530000000     0.836635000000     0.340335000000     2.05       
O1       O2-    0.186300000000     0.723300000000     0.377900000000    -1.025      
O2       O2-    0.154200000000     0.720650000000     0.460550000000    -1.025      
O3       O2-    0.100350000000     0.720400000000     0.014450000000    -1.025      
O4       O2-    0.048450000000     0.719450000000     0.457200000000    -1.025      
O5       O2-    0.057450000000     0.722950000000     0.361850000000    -1.025      
O6       O2-    0.121750000000     0.722350000000     0.377000000000    -1.025      
O7       O2-    0.187100000000     0.828050000000     0.381400000000    -1.025      
O8       O2-    0.154250000000     0.827600000000     0.463600000000    -1.025      
O9       O2-    0.099000000000     0.827700000000     0.014400000000    -1.025      
O10      O2-    0.045500000000     0.830700000000     0.461150000000    -1.025      
O11      O2-    0.058450000000     0.828900000000     0.365300000000    -1.025      
O12      O2-    0.122400000000     0.829700000000     0.378900000000    -1.025      
O13      O2-    0.152350000000     0.775500000000     0.406700000000    -1.025      
O14      O2-    0.038400000000     0.775950000000     0.411550000000    -1.025      
O15      O2-    0.208050000000     0.686200000000     0.305200000000    -1.025      
O16      O2-    0.204300000000     0.750850000000     0.293200000000    -1.025      
O17      O2-    0.201000000000     0.815700000000     0.288050000000    -1.025      
O18      O2-    0.094300000000     0.685100000000     0.308200000000    -1.025      
O19      O2-    0.097000000000     0.749650000000     0.295900000000    -1.025      
O20      O2-    0.097550000000     0.814550000000     0.290500000000    -1.025      
O21      O2-    0.498150000000     0.724900000000     0.396000000000    -1.025      
O22      O2-    0.498000000000     0.826400000000     0.396100000000    -1.025      
Si1      Si4+   0.211190000000     0.528250000000     0.832010000000     2.05       
Si2      Si4+   0.153580000000     0.513860000000     0.905350000000     2.05       
Si3      Si4+   0.139555000000     0.530635000000     0.515600000000     2.05       
Si4      Si4+   0.061075000000     0.531490000000     0.513350000000     2.05       
Si5      Si4+   0.035640000000     0.513610000000     0.907245000000     2.05       
Si6      Si4+   0.093205000000     0.529480000000     0.835910000000     2.05       
Si7      Si4+   0.211325000000     0.913750000000     0.836410000000     2.05       
Si8      Si4+   0.153890000000     0.934920000000     0.907260000000     2.05       
Si9      Si4+   0.137770000000     0.913605000000     0.515545000000     2.05       
Si10     Si4+   0.060290000000     0.913450000000     0.514895000000     2.05       
Si11     Si4+   0.035220000000     0.934815000000     0.909000000000     2.05       
Si12     Si4+   0.093530000000     0.913365000000     0.840335000000     2.05       
O1       O2-    0.186300000000     0.526700000000     0.877900000000    -1.025      
O2       O2-    0.154200000000     0.529350000000     0.960550000000    -1.025      
O3       O2-    0.100350000000     0.529600000000     0.514450000000    -1.025      
O4       O2-    0.048450000000     0.530550000000     0.957200000000    -1.025      
O5       O2-    0.057450000000     0.527050000000     0.861850000000    -1.025      
O6       O2-    0.121750000000     0.527650000000     0.877000000000    -1.025      
O7       O2-    0.187100000000     0.921950000000     0.881400000000    -1.025      
O8       O2-    0.154250000000     0.922400000000     0.963600000000    -1.025      
O9       O2-    0.099000000000     0.922300000000     0.514400000000    -1.025      
O10      O2-    0.045500000000     0.919300000000     0.961150000000    -1.025      
O11      O2-    0.058450000000     0.921100000000     0.865300000000    -1.025      
O12      O2-    0.122400000000     0.920300000000     0.878900000000    -1.025      
O13      O2-    0.152350000000     0.974500000000     0.906700000000    -1.025      
O14      O2-    0.038400000000     0.974050000000     0.911550000000    -1.025      
O15      O2-    0.208050000000     0.563800000000     0.805200000000    -1.025      
O16      O2-    0.204300000000     0.999150000000     0.793200000000    -1.025      
O17      O2-    0.201000000000     0.934300000000     0.788050000000    -1.025      
O18      O2-    0.094300000000     0.564900000000     0.808200000000    -1.025      
O19      O2-    0.097000000000     0.500350000000     0.795900000000    -1.025      
O20      O2-    0.097550000000     0.935450000000     0.790500000000    -1.025      
O21      O2-    0.498150000000     0.525100000000     0.896000000000    -1.025      
O22      O2-    0.498000000000     0.923600000000     0.896100000000    -1.025      
O23      O2-    0.209600000000     0.875000000000     0.823000000000    -1.025      
O24      O2-    0.094200000000     0.875000000000     0.823100000000    -1.025      
O25      O2-    0.144150000000     0.875000000000     0.528950000000    -1.025      
O26      O2-    0.054250000000     0.875000000000     0.530550000000    -1.025      
Si1      Si4+   0.038810000000     0.971750000000     0.582010000000     2.05       
Si2      Si4+   0.096420000000     0.986140000000     0.655350000000     2.05       
Si3      Si4+   0.110445000000     0.969365000000     0.765600000000     2.05       
Si4      Si4+   0.188925000000     0.968510000000     0.763350000000     2.05       
Si5      Si4+   0.214360000000     0.986390000000     0.657245000000     2.05       
Si6      Si4+   0.156795000000     0.970520000000     0.585910000000     2.05       
Si7      Si4+   0.038675000000     0.586250000000     0.586410000000     2.05       
Si8      Si4+   0.096110000000     0.565080000000     0.657260000000     2.05       
Si9      Si4+   0.112230000000     0.586395000000     0.765545000000     2.05       
Si10     Si4+   0.189710000000     0.586550000000     0.764895000000     2.05       
Si11     Si4+   0.214780000000     0.565185000000     0.659000000000     2.05       
Si12     Si4+   0.156470000000     0.586635000000     0.590335000000     2.05       
O1       O2-    0.063700000000     0.973300000000     0.627900000000    -1.025      
O2       O2-    0.095800000000     0.970650000000     0.710550000000    -1.025      
O3       O2-    0.149650000000     0.970400000000     0.764450000000    -1.025      
O4       O2-    0.201550000000     0.969450000000     0.707200000000    -1.025      
O5       O2-    0.192550000000     0.972950000000     0.611850000000    -1.025      
O6       O2-    0.128250000000     0.972350000000     0.627000000000    -1.025      
O7       O2-    0.062900000000     0.578050000000     0.631400000000    -1.025      
O8       O2-    0.095750000000     0.577600000000     0.713600000000    -1.025      
O9       O2-    0.151000000000     0.577700000000     0.764400000000    -1.025      
O10      O2-    0.204500000000     0.580700000000     0.711150000000    -1.025      
O11      O2-    0.191550000000     0.578900000000     0.615300000000    -1.025      
O12      O2-    0.127600000000     0.579700000000     0.628900000000    -1.025      
O13      O2-    0.097650000000     0.525500000000     0.656700000000    -1.025      
O14      O2-    0.211600000000     0.525950000000     0.661550000000    -1.025      
O15      O2-    0.041950000000     0.936200000000     0.555200000000    -1.025      
O16      O2-    0.045700000000     0.500850000000     0.543200000000    -1.025      
O17      O2-    0.049000000000     0.565700000000     0.538050000000    -1.025      
O18      O2-    0.155700000000     0.935100000000     0.558200000000    -1.025      
O19      O2-    0.153000000000     0.999650000000     0.545900000000    -1.025      
O20      O2-    0.152450000000     0.564550000000     0.540500000000    -1.025      
O21      O2-    0.251850000000     0.974900000000     0.646000000000    -1.025      
O22      O2-    0.252000000000     0.576400000000     0.646100000000    -1.025      
O23      O2-    0.040400000000     0.625000000000     0.573000000000    -1.025      
O24      O2-    0.155800000000     0.625000000000     0.573100000000    -1.025      
O25      O2-    0.105850000000     0.625000000000     0.778950000000    -1.025      
O26      O2-    0.195750000000     0.625000000000     0.780550000000    -1.025      
Si1      Si4+   0.461190000000     0.721750000000     0.917990000000     2.05       
Si2      Si4+   0.403580000000     0.736140000000     0.844650000000     2.05       
Si3      Si4+   0.389555000000     0.719365000000     0.734400000000     2.05       
Si4      Si4+   0.311075000000     0.718510000000     0.736650000000     2.05       
Si5      Si4+   0.285640000000     0.736390000000     0.842755000000     2.05       
Si6      Si4+   0.343205000000     0.720520000000     0.914090000000     2.05       
Si7      Si4+   0.461325000000     0.836250000000     0.913590000000     2.05       
Si8      Si4+   0.403890000000     0.815080000000     0.842740000000     2.05       
Si9      Si4+   0.387770000000     0.836395000000     0.734455000000     2.05       
Si10     Si4+   0.310290000000     0.836550000000     0.735105000000     2.05       
Si11     Si4+   0.285220000000     0.815185000000     0.841000000000     2.05       
Si12     Si4+   0.343530000000     0.836635000000     0.909665000000     2.05       
O1       O2-    0.436300000000     0.723300000000     0.872100000000    -1.025      
O2       O2-    0.404200000000     0.720650000000     0.789450000000    -1.025      
O3       O2-    0.350350000000     0.720400000000     0.735550000000    -1.025      
O4       O2-    0.298450000000     0.719450000000     0.792800000000    -1.025      
O5       O2-    0.307450000000     0.722950000000     0.888150000000    -1.025      
O6       O2-    0.371750000000     0.722350000000     0.873000000000    -1.025      
O7       O2-    0.437100000000     0.828050000000     0.868600000000    -1.025      
O8       O2-    0.404250000000     0.827600000000     0.786400000000    -1.025      
O9       O2-    0.349000000000     0.827700000000     0.735600000000    -1.025      
O10      O2-    0.295500000000     0.830700000000     0.788850000000    -1.025      
O11      O2-    0.308450000000     0.828900000000     0.884700000000    -1.025      
O12      O2-    0.372400000000     0.829700000000     0.871100000000    -1.025      
O13      O2-    0.402350000000     0.775500000000     0.843300000000    -1.025      
O14      O2-    0.288400000000     0.775950000000     0.838450000000    -1.025      
O15      O2-    0.458050000000     0.686200000000     0.944800000000    -1.025      
O16      O2-    0.454300000000     0.750850000000     0.956800000000    -1.025      
O17      O2-    0.451000000000     0.815700000000     0.961950000000    -1.025      
O18      O2-    0.344300000000     0.685100000000     0.941800000000    -1.025      
O19      O2-    0.347000000000     0.749650000000     0.954100000000    -1.025      
O20      O2-    0.347550000000     0.814550000000     0.959500000000    -1.025      
O21      O2-    0.248150000000     0.724900000000     0.854000000000    -1.025      
O22      O2-    0.248000000000     0.826400000000     0.853900000000    -1.025      
O23      O2-    0.459600000000     0.875000000000     0.927000000000    -1.025      
O24      O2-    0.344200000000     0.875000000000     0.926900000000    -1.025      
O25      O2-    0.394150000000     0.875000000000     0.721050000000    -1.025      
O26      O2-    0.304250000000     0.875000000000     0.719450000000    -1.025      
Si1      Si4+   0.288810000000     0.778250000000     0.667990000000     2.05       
Si2      Si4+   0.346420000000     0.763860000000     0.594650000000     2.05       
Si3      Si4+   0.360445000000     0.780635000000     0.984400000000     2.05       
Si4      Si4+   0.438925000000     0.781490000000     0.986650000000     2.05       
Si5      Si4+   0.464360000000     0.763610000000     0.592755000000     2.05       
Si6      Si4+   0.406795000000     0.779480000000     0.664090000000     2.05       
Si7      Si4+   0.288675000000     0.663750000000     0.663590000000     2.05       
Si8      Si4+   0.346110000000     0.684920000000     0.592740000000     2.05       
Si9      Si4+   0.362230000000     0.663605000000     0.984455000000     2.05       
Si10     Si4+   0.439710000000     0.663450000000     0.985105000000     2.05       
Si11     Si4+   0.464780000000     0.684815000000     0.591000000000     2.05       
Si12     Si4+   0.406470000000     0.663365000000     0.659665000000     2.05       
O1       O2-    0.313700000000     0.776700000000     0.622100000000    -1.025      
O2       O2-    0.345800000000     0.779350000000     0.539450000000    -1.025      
O3       O2-    0.399650000000     0.779600000000     0.985550000000    -1.025      
O4       O2-    0.451550000000     0.780550000000     0.542800000000    -1.025      
O5       O2-    0.442550000000     0.777050000000     0.638150000000    -1.025      
O6       O2-    0.378250000000     0.777650000000     0.623000000000    -1.025      
O7       O2-    0.312900000000     0.671950000000     0.618600000000    -1.025      
O8       O2-    0.345750000000     0.672400000000     0.536400000000    -1.025      
O9       O2-    0.401000000000     0.672300000000     0.985600000000    -1.025      
O10      O2-    0.454500000000     0.669300000000     0.538850000000    -1.025      
O11      O2-    0.441550000000     0.671100000000     0.634700000000    -1.025      
O12      O2-    0.377600000000     0.670300000000     0.621100000000    -1.025      
O13      O2-    0.347650000000     0.724500000000     0.593300000000    -1.025      
O14      O2-    0.461600000000     0.724050000000     0.588450000000    -1.025      
O15      O2-    0.291950000000     0.813800000000     0.694800000000    -1.025      
O16      O2-    0.295700000000     0.749150000000     0.706800000000    -1.025      
O17      O2-    0.299000000000     0.684300000000     0.711950000000    -1.025      
O18      O2-    0.405700000000     0.814900000000     0.691800000000    -1.025      
O19      O2-    0.403000000000     0.750350000000     0.704100000000    -1.025      
O20      O2-    0.402450000000     0.685450000000     0.709500000000    -1.025      
O21      O2-    0.001850000000     0.775100000000     0.604000000000    -1.025      
O22      O2-    0.002000000000     0.673600000000     0.603900000000    -1.025      
O23      O2-    0.290400000000     0.625000000000     0.677000000000    -1.025      
O24      O2-    0.405800000000     0.625000000000     0.676900000000    -1.025      
O25      O2-    0.355850000000     0.625000000000     0.971050000000    -1.025      
O26      O2-    0.445750000000     0.625000000000     0.969450000000    -1.025      
Si1      Si4+   0.288810000000     0.971750000000     0.667990000000     2.05       
Si2      Si4+   0.346420000000     0.986140000000     0.594650000000     2.05       
Si3      Si4+   0.360445000000     0.969365000000     0.984400000000     2.05       
Si4      Si4+   0.438925000000     0.968510000000     0.986650000000     2.05       
Si5      Si4+   0.464360000000     0.986390000000     0.592755000000     2.05       
Si6      Si4+   0.406795000000     0.970520000000     0.664090000000     2.05       
Si7      Si4+   0.288675000000     0.586250000000     0.663590000000     2.05       
Si8      Si4+   0.346110000000     0.565080000000     0.592740000000     2.05       
Si9      Si4+   0.362230000000     0.586395000000     0.984455000000     2.05       
Si10     Si4+   0.439710000000     0.586550000000     0.985105000000     2.05       
Si11     Si4+   0.464780000000     0.565185000000     0.591000000000     2.05       
Si12     Si4+   0.406470000000     0.586635000000     0.659665000000     2.05       
O1       O2-    0.313700000000     0.973300000000     0.622100000000    -1.025      
O2       O2-    0.345800000000     0.970650000000     0.539450000000    -1.025      
O3       O2-    0.399650000000     0.970400000000     0.985550000000    -1.025      
O4       O2-    0.451550000000     0.969450000000     0.542800000000    -1.025      
O5       O2-    0.442550000000     0.972950000000     0.638150000000    -1.025      
O6       O2-    0.378250000000     0.972350000000     0.623000000000    -1.025      
O7       O2-    0.312900000000     0.578050000000     0.618600000000    -1.025      
O8       O2-    0.345750000000     0.577600000000     0.536400000000    -1.025      
O9       O2-    0.401000000000     0.577700000000     0.985600000000    -1.025      
O10      O2-    0.454500000000     0.580700000000     0.538850000000    -1.025      
O11      O2-    0.441550000000     0.578900000000     0.634700000000    -1.025      
O12      O2-    0.377600000000     0.579700000000     0.621100000000    -1.025      
O13      O2-    0.347650000000     0.525500000000     0.593300000000    -1.025      
O14      O2-    0.461600000000     0.525950000000     0.588450000000    -1.025      
O15      O2-    0.291950000000     0.936200000000     0.694800000000    -1.025      
O16      O2-    0.295700000000     0.500850000000     0.706800000000    -1.025      
O17      O2-    0.299000000000     0.565700000000     0.711950000000    -1.025      
O18      O2-    0.405700000000     0.935100000000     0.691800000000    -1.025      
O19      O2-    0.403000000000     0.999650000000     0.704100000000    -1.025      
O20      O2-    0.402450000000     0.564550000000     0.709500000000    -1.025      
O21      O2-    0.001850000000     0.974900000000     0.604000000000    -1.025      
O22      O2-    0.002000000000     0.576400000000     0.603900000000    -1.025      
Si1      Si4+   0.461190000000     0.528250000000     0.917990000000     2.05       
Si2      Si4+   0.403580000000     0.513860000000     0.844650000000     2.05       
Si3      Si4+   0.389555000000     0.530635000000     0.734400000000     2.05       
Si4      Si4+   0.311075000000     0.531490000000     0.736650000000     2.05       
Si5      Si4+   0.285640000000     0.513610000000     0.842755000000     2.05       
Si6      Si4+   0.343205000000     0.529480000000     0.914090000000     2.05       
Si7      Si4+   0.461325000000     0.913750000000     0.913590000000     2.05       
Si8      Si4+   0.403890000000     0.934920000000     0.842740000000     2.05       
Si9      Si4+   0.387770000000     0.913605000000     0.734455000000     2.05       
Si10     Si4+   0.310290000000     0.913450000000     0.735105000000     2.05       
Si11     Si4+   0.285220000000     0.934815000000     0.841000000000     2.05       
Si12     Si4+   0.343530000000     0.913365000000     0.909665000000     2.05       
O1       O2-    0.436300000000     0.526700000000     0.872100000000    -1.025      
O2       O2-    0.404200000000     0.529350000000     0.789450000000    -1.025      
O3       O2-    0.350350000000     0.529600000000     0.735550000000    -1.025      
O4       O2-    0.298450000000     0.530550000000     0.792800000000    -1.025      
O5       O2-    0.307450000000     0.527050000000     0.888150000000    -1.025      
O6       O2-    0.371750000000     0.527650000000     0.873000000000    -1.025      
O7       O2-    0.437100000000     0.921950000000     0.868600000000    -1.025      
O8       O2-    0.404250000000     0.922400000000     0.786400000000    -1.025      
O9       O2-    0.349000000000     0.922300000000     0.735600000000    -1.025      
O10      O2-    0.295500000000     0.919300000000     0.788850000000    -1.025      
O11      O2-    0.308450000000     0.921100000000     0.884700000000    -1.025      
O12      O2-    0.372400000000     0.920300000000     0.871100000000    -1.025      
O13      O2-    0.402350000000     0.974500000000     0.843300000000    -1.025      
O14      O2-    0.288400000000     0.974050000000     0.838450000000    -1.025      
O15      O2-    0.458050000000     0.563800000000     0.944800000000    -1.025      
O16      O2-    0.454300000000     0.999150000000     0.956800000000    -1.025      
O17      O2-    0.451000000000     0.934300000000     0.961950000000    -1.025      
O18      O2-    0.344300000000     0.564900000000     0.941800000000    -1.025      
O19      O2-    0.347000000000     0.500350000000     0.954100000000    -1.025      
O20      O2-    0.347550000000     0.935450000000     0.959500000000    -1.025      
O21      O2-    0.248150000000     0.525100000000     0.854000000000    -1.025      
O22      O2-    0.248000000000     0.923600000000     0.853900000000    -1.025      
Si1      Si4+   0.038810000000     0.778250000000     0.582010000000     2.05       
Si2      Si4+   0.096420000000     0.763860000000     0.655350000000     2.05       
Si3      Si4+   0.110445000000     0.780635000000     0.765600000000     2.05       
Si4      Si4+   0.188925000000     0.781490000000     0.763350000000     2.05       
Si5      Si4+   0.214360000000     0.763610000000     0.657245000000     2.05       
Si6      Si4+   0.156795000000     0.779480000000     0.585910000000     2.05       
Si7      Si4+   0.038675000000     0.663750000000     0.586410000000     2.05       
Si8      Si4+   0.096110000000     0.684920000000     0.657260000000     2.05       
Si9      Si4+   0.112230000000     0.663605000000     0.765545000000     2.05       
Si10     Si4+   0.189710000000     0.663450000000     0.764895000000     2.05       
Si11     Si4+   0.214780000000     0.684815000000     0.659000000000     2.05       
Si12     Si4+   0.156470000000     0.663365000000     0.590335000000     2.05       
O1       O2-    0.063700000000     0.776700000000     0.627900000000    -1.025      
O2       O2-    0.095800000000     0.779350000000     0.710550000000    -1.025      
O3       O2-    0.149650000000     0.779600000000     0.764450000000    -1.025      
O4       O2-    0.201550000000     0.780550000000     0.707200000000    -1.025      
O5       O2-    0.192550000000     0.777050000000     0.611850000000    -1.025      
O6       O2-    0.128250000000     0.777650000000     0.627000000000    -1.025      
O7       O2-    0.062900000000     0.671950000000     0.631400000000    -1.025      
O8       O2-    0.095750000000     0.672400000000     0.713600000000    -1.025      
O9       O2-    0.151000000000     0.672300000000     0.764400000000    -1.025      
O10      O2-    0.204500000000     0.669300000000     0.711150000000    -1.025      
O11      O2-    0.191550000000     0.671100000000     0.615300000000    -1.025      
O12      O2-    0.127600000000     0.670300000000     0.628900000000    -1.025      
O13      O2-    0.097650000000     0.724500000000     0.656700000000    -1.025      
O14      O2-    0.211600000000     0.724050000000     0.661550000000    -1.025      
O15      O2-    0.041950000000     0.813800000000     0.555200000000    -1.025      
O16      O2-    0.045700000000     0.749150000000     0.543200000000    -1.025      
O17      O2-    0.049000000000     0.684300000000     0.538050000000    -1.025      
O18      O2-    0.155700000000     0.814900000000     0.558200000000    -1.025      
O19      O2-    0.153000000000     0.750350000000     0.545900000000    -1.025      
O20      O2-    0.152450000000     0.685450000000     0.540500000000    -1.025      
O21      O2-    0.251850000000     0.775100000000     0.646000000000    -1.025      
O22      O2-    0.252000000000     0.673600000000     0.646100000000    -1.025      
Si1      Si4+   0.211190000000     0.721750000000     0.832010000000     2.05       
Si2      Si4+   0.153580000000     0.736140000000     0.905350000000     2.05       
Si3      Si4+   0.139555000000     0.719365000000     0.515600000000     2.05       
Si4      Si4+   0.061075000000     0.718510000000     0.513350000000     2.05       
Si5      Si4+   0.035640000000     0.736390000000     0.907245000000     2.05       
Si6      Si4+   0.093205000000     0.720520000000     0.835910000000     2.05       
Si7      Si4+   0.211325000000     0.836250000000     0.836410000000     2.05       
Si8      Si4+   0.153890000000     0.815080000000     0.907260000000     2.05       
Si9      Si4+   0.137770000000     0.836395000000     0.515545000000     2.05       
Si10     Si4+   0.060290000000     0.836550000000     0.514895000000     2.05       
Si11     Si4+   0.035220000000     0.815185000000     0.909000000000     2.05       
Si12     Si4+   0.093530000000     0.836635000000     0.840335000000     2.05       
O1       O2-    0.186300000000     0.723300000000     0.877900000000    -1.025      
O2       O2-    0.154200000000     0.720650000000     0.960550000000    -1.025      
O3       O2-    0.100350000000     0.720400000000     0.514450000000    -1.025      
O4       O2-    0.048450000000     0.719450000000     0.957200000000    -1.025      
O5       O2-    0.057450000000     0.722950000000     0.861850000000    -1.025      
O6       O2-    0.121750000000     0.722350000000     0.877000000000    -1.025      
O7       O2-    0.187100000000     0.828050000000     0.881400000000    -1.025      
O8       O2-    0.154250000000     0.827600000000     0.963600000000    -1.025      
O9       O2-    0.099000000000     0.827700000000     0.514400000000    -1.025      
O10      O2-    0.045500000000     0.830700000000     0.961150000000    -1.025      
O11      O2-    0.058450000000     0.828900000000     0.865300000000    -1.025      
O12      O2-    0.122400000000     0.829700000000     0.878900000000    -1.025      
O13      O2-    0.152350000000     0.775500000000     0.906700000000    -1.025      
O14      O2-    0.038400000000     0.775950000000     0.911550000000    -1.025      
O15      O2-    0.208050000000     0.686200000000     0.805200000000    -1.025      
O16      O2-    0.204300000000     0.750850000000     0.793200000000    -1.025      
O17      O2-    0.201000000000     0.815700000000     0.788050000000    -1.025      
O18      O2-    0.094300000000     0.685100000000     0.808200000000    -1.025      
O19      O2-    0.097000000000     0.749650000000     0.795900000000    -1.025      
O20      O2-    0.097550000000     0.814550000000     0.790500000000    -1.025      
O21      O2-    0.498150000000     0.724900000000     0.896000000000    -1.025      
O22      O2-    0.498000000000     0.826400000000     0.896100000000    -1.025      
Si1      Si4+   0.711190000000     0.028250000000     0.332010000000     2.05       
Si2      Si4+   0.653580000000     0.013860000000     0.405350000000     2.05       
Si3      Si4+   0.639555000000     0.030635000000     0.015600000000     2.05       
Si4      Si4+   0.561075000000     0.031490000000     0.013350000000     2.05       
Si5      Si4+   0.535640000000     0.013610000000     0.407245000000     2.05       
Si6      Si4+   0.593205000000     0.029480000000     0.335910000000     2.05       
Si7      Si4+   0.711325000000     0.413750000000     0.336410000000     2.05       
Si8      Si4+   0.653890000000     0.434920000000     0.407260000000     2.05       
Si9      Si4+   0.637770000000     0.413605000000     0.015545000000     2.05       
Si10     Si4+   0.560290000000     0.413450000000     0.014895000000     2.05       
Si11     Si4+   0.535220000000     0.434815000000     0.409000000000     2.05       
Si12     Si4+   0.593530000000     0.413365000000     0.340335000000     2.05       
O1       O2-    0.686300000000     0.026700000000     0.377900000000    -1.025      
O2       O2-    0.654200000000     0.029350000000     0.460550000000    -1.025      
O3       O2-    0.600350000000     0.029600000000     0.014450000000    -1.025      
O4       O2-    0.548450000000     0.030550000000     0.457200000000    -1.025      
O5       O2-    0.557450000000     0.027050000000     0.361850000000    -1.025      
O6       O2-    0.621750000000     0.027650000000     0.377000000000    -1.025      
O7       O2-    0.687100000000     0.421950000000     0.381400000000    -1.025      
O8       O2-    0.654250000000     0.422400000000     0.463600000000    -1.025      
O9       O2-    0.599000000000     0.422300000000     0.014400000000    -1.025      
O10      O2-    0.545500000000     0.419300000000     0.461150000000    -1.025      
O11      O2-    0.558450000000     0.421100000000     0.365300000000    -1.025      
O12      O2-    0.622400000000     0.420300000000     0.378900000000    -1.025      
O13      O2-    0.652350000000     0.474500000000     0.406700000000    -1.025      
O14      O2-    0.538400000000     0.474050000000     0.411550000000    -1.025      
O15      O2-    0.708050000000     0.063800000000     0.305200000000    -1.025      
O16      O2-    0.704300000000     0.499150000000     0.293200000000    -1.025      
O17      O2-    0.701000000000     0.434300000000     0.288050000000    -1.025      
O18      O2-    0.594300000000     0.064900000000     0.308200000000    -1.025      
O19      O2-    0.597000000000     0.000350000000     0.295900000000    -1.025      
O20      O2-    0.597550000000     0.435450000000     0.290500000000    -1.025      
O21      O2-    0.998150000000     0.025100000000     0.396000000000    -1.025      
O22      O2-    0.998000000000     0.423600000000     0.396100000000    -1.025      
O23      O2-    0.709600000000     0.375000000000     0.323000000000    -1.025      
O24      O2-    0.594200000000     0.375000000000     0.323100000000    -1.025      
O25      O2-    0.644150000000     0.375000000000     0.028950000000    -1.025      
O26      O2-    0.554250000000     0.375000000000     0.030550000000    -1.025      
Si1      Si4+   0.538810000000     0.471750000000     0.082010000000     2.05       
Si2      Si4+   0.596420000000     0.486140000000     0.155350000000     2.05       
Si3      Si4+   0.610445000000     0.469365000000     0.265600000000     2.05       
Si4      Si4+   0.688925000000     0.468510000000     0.263350000000     2.05       
Si5      Si4+   0.714360000000     0.486390000000     0.157245000000     2.05       
Si6      Si4+   0.656795000000     0.470520000000     0.085910000000     2.05       
Si7      Si4+   0.538675000000     0.086250000000     0.086410000000     2.05       
Si8      Si4+   0.596110000000     0.065080000000     0.157260000000     2.05       
Si9      Si4+   0.612230000000     0.086395000000     0.265545000000     2.05       
Si10     Si4+   0.689710000000     0.086550000000     0.264895000000     2.05       
Si11     Si4+   0.714780000000     0.065185000000     0.159000000000     2.05       
Si12     Si4+   0.656470000000     0.086635000000     0.090335000000     2.05       
O1       O2-    0.563700000000     0.473300000000     0.127900000000    -1.025      
O2       O2-    0.595800000000     0.470650000000     0.210550000000    -1.025      
O3       O2-    0.649650000000     0.470400000000     0.264450000000    -1.025      
O4       O2-    0.701550000000     0.469450000000     0.207200000000    -1.025      
O5       O2-    0.692550000000     0.472950000000     0.111850000000    -1.025      
O6       O2-    0.628250000000     0.472350000000     0.127000000000    -1.025      
O7       O2-    0.562900000000     0.078050000000     0.131400000000    -1.025      
O8       O2-    0.595750000000     0.077600000000     0.213600000000    -1.025      
O9       O2-    0.651000000000     0.077700000000     0.264400000000    -1.025      
O10      O2-    0.704500000000     0.080700000000     0.211150000000    -1.025      
O11      O2-    0.691550000000     0.078900000000     0.115300000000    -1.025      
O12      O2-    0.627600000000     0.079700000000     0.128900000000    -1.025      
O13      O2-    0.597650000000     0.025500000000     0.156700000000    -1.025      
O14      O2-    0.711600000000     0.025950000000     0.161550000000    -1.025      
O15      O2-    0.541950000000     0.436200000000     0.055200000000    -1.025      
O16      O2-    0.545700000000     0.000850000000     0.043200000000    -1.025      
O17      O2-    0.549000000000     0.065700000000     0.038050000000    -1.025      
O18      O2-    0.655700000000     0.435100000000     0.058200000000    -1.025      
O19      O2-    0.653000000000     0.499650000000     0.045900000000    -1.025      
O20      O2-    0.652450000000     0.064550000000     0.040500000000    -1.025      
O21      O2-    0.751850000000     0.474900000000     0.146000000000    -1.025      
O22      O2-    0.752000000000     0.076400000000     0.146100000000    -1.025      
O23      O2-    0.540400000000     0.125000000000     0.073000000000    -1.025      
O24      O2-    0.655800000000     0.125000000000     0.073100000000    -1.025      
O25      O2-    0.605850000000     0.125000000000     0.278950000000    -1.025      
O26      O2-    0.695750000000     0.125000000000     0.280550000000    -1.025      
Si1      Si4+   0.961190000000     0.221750000000     0.417990000000     2.05       
Si2      Si4+   0.903580000000     0.236140000000     0.344650000000     2.05       
Si3      Si4+   0.889555000000     0.219365000000     0.234400000000     2.05       
Si4      Si4+   0.811075000000     0.218510000000     0.236650000000     2.05       
Si5      Si4+   0.785640000000     0.236390000000     0.342755000000     2.05       
Si6      Si4+   0.843205000000     0.220520000000     0.414090000000     2.05       
Si7      Si4+   0.961325000000     0.336250000000     0.413590000000     2.05       
Si8      Si4+   0.903890000000     0.315080000000     0.342740000000     2.05       
Si9      Si4+   0.887770000000     0.336395000000     0.234455000000     2.05       
Si10     Si4+   0.810290000000     0.336550000000     0.235105000000     2.05       
Si11     Si4+   0.785220000000     0.315185000000     0.341000000000     2.05       
Si12     Si4+   0.843530000000     0.336635000000     0.409665000000     2.05       
O1       O2-    0.936300000000     0.223300000000     0.372100000000    -1.025      
O2       O2-    0.904200000000     0.220650000000     0.289450000000    -1.025      
O3       O2-    0.850350000000     0.220400000000     0.235550000000    -1.025      
O4       O2-    0.798450000000     0.219450000000     0.292800000000    -1.025      
O5       O2-    0.807450000000     0.222950000000     0.388150000000    -1.025      
O6       O2-    0.871750000000     0.222350000000     0.373000000000    -1.025      
O7       O2-    0.937100000000     0.328050000000     0.368600000000    -1.025      
O8       O2-    0.904250000000     0.327600000000     0.286400000000    -1.025      
O9       O2-    0.849000000000     0.327700000000     0.235600000000    -1.025      
O10      O2-    0.795500000000     0.330700000000     0.288850000000    -1.025      
O11      O2-    0.808450000000     0.328900000000     0.384700000000    -1.025      
O12      O2-    0.872400000000     0.329700000000     0.371100000000    -1.025      
O13      O2-    0.902350000000     0.275500000000     0.343300000000    -1.025      
O14      O2-    0.788400000000     0.275950000000     0.338450000000    -1.025      
O15      O2-    0.958050000000     0.186200000000     0.444800000000    -1.025      
O16      O2-    0.954300000000     0.250850000000     0.456800000000    -1.025      
O17      O2-    0.951000000000     0.315700000000     0.461950000000    -1.025      
O18      O2-    0.844300000000     0.185100000000     0.441800000000    -1.025      
O19      O2-    0.847000000000     0.249650000000     0.454100000000    -1.025      
O20      O2-    0.847550000000     0.314550000000     0.459500000000    -1.025      
O21      O2-    0.748150000000     0.224900000000     0.354000000000    -1.025      
O22      O2-    0.748000000000     0.326400000000     0.353900000000    -1.025      
O23      O2-    0.959600000000     0.375000000000     0.427000000000    -1.025      
O24      O2-    0.844200000000     0.375000000000     0.426900000000    -1.025      
O25      O2-    0.894150000000     0.375000000000     0.221050000000    -1.025      
O26      O2-    0.804250000000     0.375000000000     0.219450000000    -1.025      
Si1      Si4+   0.788810000000     0.278250000000     0.167990000000     2.05       
Si2      Si4+   0.846420000000     0.263860000000     0.094650000000     2.05       
Si3      Si4+   0.860445000000     0.280635000000     0.484400000000     2.05       
Si4      Si4+   0.938925000000     0.281490000000     0.486650000000     2.05       
Si5      Si4+   0.964360000000     0.263610000000     0.092755000000     2.05       
Si6      Si4+   0.906795000000     0.279480000000     0.164090000000     2.05       
Si7      Si4+   0.788675000000     0.163750000000     0.163590000000     2.05       
Si8      Si4+   0.846110000000     0.184920000000     0.092740000000     2.05       
Si9      Si4+   0.862230000000     0.163605000000     0.484455000000     2.05       
Si10     Si4+   0.939710000000     0.163450000000     0.485105000000     2.05       
Si11     Si4+   0.964780000000     0.184815000000     0.091000000000     2.05       
Si12     Si4+   0.906470000000     0.163365000000     0.159665000000     2.05       
O1       O2-    0.813700000000     0.276700000000     0.122100000000    -1.025      
O2       O2-    0.845800000000     0.279350000000     0.039450000000    -1.025      
O3       O2-    0.899650000000     0.279600000000     0.485550000000    -1.025      
O4       O2-    0.951550000000     0.280550000000     0.042800000000    -1.025      
O5       O2-    0.942550000000     0.277050000000     0.138150000000    -1.025      
O6       O2-    0.878250000000     0.277650000000     0.123000000000    -1.025      
O7       O2-    0.812900000000     0.171950000000     0.118600000000    -1.025      
O8       O2-    0.845750000000     0.172400000000     0.036400000000    -1.025      
O9       O2-    0.901000000000     0.172300000000     0.485600000000    -1.025      
O10      O2-    0.954500000000     0.169300000000     0.038850000000    -1.025      
O11      O2-    0.941550000000     0.171100000000     0.134700000000    -1.025      
O12      O2-    0.877600000000     0.170300000000     0.121100000000    -1.025      
O13      O2-    0.847650000000     0.224500000000     0.093300000000    -1.025      
O14      O2-    0.961600000000     0.224050000000     0.088450000000    -1.025      
O15      O2-    0.791950000000     0.313800000000     0.194800000000    -1.025      
O16      O2-    0.795700000000     0.249150000000     0.206800000000    -1.025      
O17      O2-    0.799000000000     0.184300000000     0.211950000000    -1.025      
O18      O2-    0.905700000000     0.314900000000     0.191800000000    -1.025      
O19      O2-    0.903000000000     0.250350000000     0.204100000000    -1.025      
O20      O2-    0.902450000000     0.185450000000     0.209500000000    -1.025      
O21      O2-    0.501850000000     0.275100000000     0.104000000000    -1.025      
O22      O2-    0.502000000000     0.173600000000     0.103900000000    -1.025      
O23      O2-    0.790400000000     0.125000000000     0.177000000000    -1.025      
O24      O2-    0.905800000000     0.125000000000     0.176900000000    -1.025      
O25      O2-    0.855850000000     0.125000000000     0.471050000000    -1.025      
O26      O2-    0.945750000000     0.125000000000     0.469450000000    -1.025      
Si1      Si4+   0.788810000000     0.471750000000     0.167990000000     2.05       
Si2      Si4+   0.846420000000     0.486140000000     0.094650000000     2.05       
Si3      Si4+   0.860445000000     0.469365000000     0.484400000000     2.05       
Si4      Si4+   0.938925000000     0.468510000000     0.486650000000     2.05       
Si5      Si4+   0.964360000000     0.486390000000     0.092755000000     2.05       
Si6      Si4+   0.906795000000     0.470520000000     0.164090000000     2.05       
Si7      Si4+   0.788675000000     0.086250000000     0.163590000000     2.05       
Si8      Si4+   0.846110000000     0.065080000000     0.092740000000     2.05       
Si9      Si4+   0.862230000000     0.086395000000     0.484455000000     2.05       
Si10     Si4+   0.939710000000     0.086550000000     0.485105000000     2.05       
Si11     Si4+   0.964780000000     0.065185000000     0.091000000000     2.05       
Si12     Si4+   0.906470000000     0.086635000000     0.159665000000     2.05       
O1       O2-    0.813700000000     0.473300000000     0.122100000000    -1.025      
O2       O2-    0.845800000000     0.470650000000     0.039450000000    -1.025      
O3       O2-    0.899650000000     0.470400000000     0.485550000000    -1.025      
O4       O2-    0.951550000000     0.469450000000     0.042800000000    -1.025      
O5       O2-    0.942550000000     0.472950000000     0.138150000000    -1.025      
O6       O2-    0.878250000000     0.472350000000     0.123000000000    -1.025      
O7       O2-    0.812900000000     0.078050000000     0.118600000000    -1.025      
O8       O2-    0.845750000000     0.077600000000     0.036400000000    -1.025      
O9       O2-    0.901000000000     0.077700000000     0.485600000000    -1.025      
O10      O2-    0.954500000000     0.080700000000     0.038850000000    -1.025      
O11      O2-    0.941550000000     0.078900000000     0.134700000000    -1.025      
O12      O2-    0.877600000000     0.079700000000     0.121100000000    -1.025      
O13      O2-    0.847650000000     0.025500000000     0.093300000000    -1.025      
O14      O2-    0.961600000000     0.025950000000     0.088450000000    -1.025      
O15      O2-    0.791950000000     0.436200000000     0.194800000000    -1.025      
O16      O2-    0.795700000000     0.000850000000     0.206800000000    -1.025      
O17      O2-    0.799000000000     0.065700000000     0.211950000000    -1.025      
O18      O2-    0.905700000000     0.435100000000     0.191800000000    -1.025      
O19      O2-    0.903000000000     0.499650000000     0.204100000000    -1.025      
O20      O2-    0.902450000000     0.064550000000     0.209500000000    -1.025      
O21      O2-    0.501850000000     0.474900000000     0.104000000000    -1.025      
O22      O2-    0.502000000000     0.076400000000     0.103900000000    -1.025      
Si1      Si4+   0.961190000000     0.028250000000     0.417990000000     2.05       
Si2      Si4+   0.903580000000     0.013860000000     0.344650000000     2.05       
Si3      Si4+   0.889555000000     0.030635000000     0.234400000000     2.05       
Si4      Si4+   0.811075000000     0.031490000000     0.236650000000     2.05       
Si5      Si4+   0.785640000000     0.013610000000     0.342755000000     2.05       
Si6      Si4+   0.843205000000     0.029480000000     0.414090000000     2.05       
Si7      Si4+   0.961325000000     0.413750000000     0.413590000000     2.05       
Si8      Si4+   0.903890000000     0.434920000000     0.342740000000     2.05       
Si9      Si4+   0.887770000000     0.413605000000     0.234455000000     2.05       
Si10     Si4+   0.810290000000     0.413450000000     0.235105000000     2.05       
Si11     Si4+   0.785220000000     0.434815000000     0.341000000000     2.05       
Si12     Si4+   0.843530000000     0.413365000000     0.409665000000     2.05       
O1       O2-    0.936300000000     0.026700000000     0.372100000000    -1.025      
O2       O2-    0.904200000000     0.029350000000     0.289450000000    -1.025      
O3       O2-    0.850350000000     0.029600000000     0.235550000000    -1.025      
O4       O2-    0.798450000000     0.030550000000     0.292800000000    -1.025      
O5       O2-    0.807450000000     0.027050000000     0.388150000000    -1.025      
O6       O2-    0.871750000000     0.027650000000     0.373000000000    -1.025      
O7       O2-    0.937100000000     0.421950000000     0.368600000000    -1.025      
O8       O2-    0.904250000000     0.422400000000     0.286400000000    -1.025      
O9       O2-    0.849000000000     0.422300000000     0.235600000000    -1.025      
O10      O2-    0.795500000000     0.419300000000     0.288850000000    -1.025      
O11      O2-    0.808450000000     0.421100000000     0.384700000000    -1.025      
O12      O2-    0.872400000000     0.420300000000     0.371100000000    -1.025      
O13      O2-    0.902350000000     0.474500000000     0.343300000000    -1.025      
O14      O2-    0.788400000000     0.474050000000     0.338450000000    -1.025      
O15      O2-    0.958050000000     0.063800000000     0.444800000000    -1.025      
O16      O2-    0.954300000000     0.499150000000     0.456800000000    -1.025      
O17      O2-    0.951000000000     0.434300000000     0.461950000000    -1.025      
O18      O2-    0.844300000000     0.064900000000     0.441800000000    -1.025      
O19      O2-    0.847000000000     0.000350000000     0.454100000000    -1.025      
O20      O2-    0.847550000000     0.435450000000     0.459500000000    -1.025      
O21      O2-    0.748150000000     0.025100000000     0.354000000000    -1.025      
O22      O2-    0.748000000000     0.423600000000     0.353900000000    -1.025      
Si1      Si4+   0.538810000000     0.278250000000     0.082010000000     2.05       
Si2      Si4+   0.596420000000     0.263860000000     0.155350000000     2.05       
Si3      Si4+   0.610445000000     0.280635000000     0.265600000000     2.05       
Si4      Si4+   0.688925000000     0.281490000000     0.263350000000     2.05       
Si5      Si4+   0.714360000000     0.263610000000     0.157245000000     2.05       
Si6      Si4+   0.656795000000     0.279480000000     0.085910000000     2.05       
Si7      Si4+   0.538675000000     0.163750000000     0.086410000000     2.05       
Si8      Si4+   0.596110000000     0.184920000000     0.157260000000     2.05       
Si9      Si4+   0.612230000000     0.163605000000     0.265545000000     2.05       
Si10     Si4+   0.689710000000     0.163450000000     0.264895000000     2.05       
Si11     Si4+   0.714780000000     0.184815000000     0.159000000000     2.05       
Si12     Si4+   0.656470000000     0.163365000000     0.090335000000     2.05       
O1       O2-    0.563700000000     0.276700000000     0.127900000000    -1.025      
O2       O2-    0.595800000000     0.279350000000     0.210550000000    -1.025      
O3       O2-    0.649650000000     0.279600000000     0.264450000000    -1.025      
O4       O2-    0.701550000000     0.280550000000     0.207200000000    -1.025      
O5       O2-    0.692550000000     0.277050000000     0.111850000000    -1.025      
O6       O2-    0.628250000000     0.277650000000     0.127000000000    -1.025      
O7       O2-    0.562900000000     0.171950000000     0.131400000000    -1.025      
O8       O2-    0.595750000000     0.172400000000     0.213600000000    -1.025      
O9       O2-    0.651000000000     0.172300000000     0.264400000000    -1.025      
O10      O2-    0.704500000000     0.169300000000     0.211150000000    -1.025      
O11      O2-    0.691550000000     0.171100000000     0.115300000000    -1.025      
O12      O2-    0.627600000000     0.170300000000     0.128900000000    -1.025      
O13      O2-    0.597650000000     0.224500000000     0.156700000000    -1.025      
O14      O2-    0.711600000000     0.224050000000     0.161550000000    -1.025      
O15      O2-    0.541950000000     0.313800000000     0.055200000000    -1.025      
O16      O2-    0.545700000000     0.249150000000     0.043200000000    -1.025      
O17      O2-    0.549000000000     0.184300000000     0.038050000000    -1.025      
O18      O2-    0.655700000000     0.314900000000     0.058200000000    -1.025      
O19      O2-    0.653000000000     0.250350000000     0.045900000000    -1.025      
O20      O2-    0.652450000000     0.185450000000     0.040500000000    -1.025      
O21      O2-    0.751850000000     0.275100000000     0.146000000000    -1.025      
O22      O2-    0.752000000000     0.173600000000     0.146100000000    -1.025      
Si1      Si4+   0.711190000000     0.221750000000     0.332010000000     2.05       
Si2      Si4+   0.653580000000     0.236140000000     0.405350000000     2.05       
Si3      Si4+   0.639555000000     0.219365000000     0.015600000000     2.05       
Si4      Si4+   0.561075000000     0.218510000000     0.013350000000     2.05       
Si5      Si4+   0.535640000000     0.236390000000     0.407245000000     2.05       
Si6      Si4+   0.593205000000     0.220520000000     0.335910000000     2.05       
Si7      Si4+   0.711325000000     0.336250000000     0.336410000000     2.05       
Si8      Si4+   0.653890000000     0.315080000000     0.407260000000     2.05       
Si9      Si4+   0.637770000000     0.336395000000     0.015545000000     2.05       
Si10     Si4+   0.560290000000     0.336550000000     0.014895000000     2.05       
Si11     Si4+   0.535220000000     0.315185000000     0.409000000000     2.05       
Si12     Si4+   0.593530000000     0.336635000000     0.340335000000     2.05       
O1       O2-    0.686300000000     0.223300000000     0.377900000000    -1.025      
O2       O2-    0.654200000000     0.220650000000     0.460550000000    -1.025      
O3       O2-    0.600350000000     0.220400000000     0.014450000000    -1.025      
O4       O2-    0.548450000000     0.219450000000     0.457200000000    -1.025      
O5       O2-    0.557450000000     0.222950000000     0.361850000000    -1.025      
O6       O2-    0.621750000000     0.222350000000     0.377000000000    -1.025      
O7       O2-    0.687100000000     0.328050000000     0.381400000000    -1.025      
O8       O2-    0.654250000000     0.327600000000     0.463600000000    -1.025      
O9       O2-    0.599000000000     0.327700000000     0.014400000000    -1.025      
O10      O2-    0.545500000000     0.330700000000     0.461150000000    -1.025      
O11      O2-    0.558450000000     0.328900000000     0.365300000000    -1.025      
O12      O2-    0.622400000000     0.329700000000     0.378900000000    -1.025      
O13      O2-    0.652350000000     0.275500000000     0.406700000000    -1.025      
O14      O2-    0.538400000000     0.275950000000     0.411550000000    -1.025      
O15      O2-    0.708050000000     0.186200000000     0.305200000000    -1.025      
O16      O2-    0.704300000000     0.250850000000     0.293200000000    -1.025      
O17      O2-    0.701000000000     0.315700000000     0.288050000000    -1.025      
O18      O2-    0.594300000000     0.185100000000     0.308200000000    -1.025      
O19      O2-    0.597000000000     0.249650000000     0.295900000000    -1.025      
O20      O2-    0.597550000000     0.314550000000     0.290500000000    -1.025      
O21      O2-    0.998150000000     0.224900000000     0.396000000000    -1.025      
O22      O2-    0.998000000000     0.326400000000     0.396100000000    -1.025      
Si1      Si4+   0.711190000000     0.028250000000     0.832010000000     2.05       
Si2      Si4+   0.653580000000     0.013860000000     0.905350000000     2.05       
Si3      Si4+   0.639555000000     0.030635000000     0.515600000000     2.05       
Si4      Si4+   0.561075000000     0.031490000000     0.513350000000     2.05       
Si5      Si4+   0.535640000000     0.013610000000     0.907245000000     2.05       
Si6      Si4+   0.593205000000     0.029480000000     0.835910000000     2.05       
Si7      Si4+   0.711325000000     0.413750000000     0.836410000000     2.05       
Si8      Si4+   0.653890000000     0.434920000000     0.907260000000     2.05       
Si9      Si4+   0.637770000000     0.413605000000     0.515545000000     2.05       
Si10     Si4+   0.560290000000     0.413450000000     0.514895000000     2.05       
Si11     Si4+   0.535220000000     0.434815000000     0.909000000000     2.05       
Si12     Si4+   0.593530000000     0.413365000000     0.840335000000     2.05       
O1       O2-    0.686300000000     0.026700000000     0.877900000000    -1.025      
O2       O2-    0.654200000000     0.029350000000     0.960550000000    -1.025      
O3       O2-    0.600350000000     0.029600000000     0.514450000000    -1.025      
O4       O2-    0.548450000000     0.030550000000     0.957200000000    -1.025      
O5       O2-    0.557450000000     0.027050000000     0.861850000000    -1.025      
O6       O2-    0.621750000000     0.027650000000     0.877000000000    -1.025      
O7       O2-    0.687100000000     0.421950000000     0.881400000000    -1.025      
O8       O2-    0.654250000000     0.422400000000     0.963600000000    -1.025      
O9       O2-    0.599000000000     0.422300000000     0.514400000000    -1.025      
O10      O2-    0.545500000000     0.419300000000     0.961150000000    -1.025      
O11      O2-    0.558450000000     0.421100000000     0.865300000000    -1.025      
O12      O2-    0.622400000000     0.420300000000     0.878900000000    -1.025      
O13      O2-    0.652350000000     0.474500000000     0.906700000000    -1.025      
O14      O2-    0.538400000000     0.474050000000     0.911550000000    -1.025      
O15      O2-    0.708050000000     0.063800000000     0.805200000000    -1.025      
O16      O2-    0.704300000000     0.499150000000     0.793200000000    -1.025      
O17      O2-    0.701000000000     0.434300000000     0.788050000000    -1.025      
O18      O2-    0.594300000000     0.064900000000     0.808200000000    -1.025      
O19      O2-    0.597000000000     0.000350000000     0.795900000000    -1.025      
O20      O2-    0.597550000000     0.435450000000     0.790500000000    -1.025      
O21      O2-    0.998150000000     0.025100000000     0.896000000000    -1.025      
O22      O2-    0.998000000000     0.423600000000     0.896100000000    -1.025      
O23      O2-    0.709600000000     0.375000000000     0.823000000000    -1.025      
O24      O2-    0.594200000000     0.375000000000     0.823100000000    -1.025      
O25      O2-    0.644150000000     0.375000000000     0.528950000000    -1.025      
O26      O2-    0.554250000000     0.375000000000     0.530550000000    -1.025      
Si1      Si4+   0.538810000000     0.471750000000     0.582010000000     2.05       
Si2      Si4+   0.596420000000     0.486140000000     0.655350000000     2.05       
Si3      Si4+   0.610445000000     0.469365000000     0.765600000000     2.05       
Si4      Si4+   0.688925000000     0.468510000000     0.763350000000     2.05       
Si5      Si4+   0.714360000000     0.486390000000     0.657245000000     2.05       
Si6      Si4+   0.656795000000     0.470520000000     0.585910000000     2.05       
Si7      Si4+   0.538675000000     0.086250000000     0.586410000000     2.05       
Si8      Si4+   0.596110000000     0.065080000000     0.657260000000     2.05       
Si9      Si4+   0.612230000000     0.086395000000     0.765545000000     2.05       
Si10     Si4+   0.689710000000     0.086550000000     0.764895000000     2.05       
Si11     Si4+   0.714780000000     0.065185000000     0.659000000000     2.05       
Si12     Si4+   0.656470000000     0.086635000000     0.590335000000     2.05       
O1       O2-    0.563700000000     0.473300000000     0.627900000000    -1.025      
O2       O2-    0.595800000000     0.470650000000     0.710550000000    -1.025      
O3       O2-    0.649650000000     0.470400000000     0.764450000000    -1.025      
O4       O2-    0.701550000000     0.469450000000     0.707200000000    -1.025      
O5       O2-    0.692550000000     0.472950000000     0.611850000000    -1.025      
O6       O2-    0.628250000000     0.472350000000     0.627000000000    -1.025      
O7       O2-    0.562900000000     0.078050000000     0.631400000000    -1.025      
O8       O2-    0.595750000000     0.077600000000     0.713600000000    -1.025      
O9       O2-    0.651000000000     0.077700000000     0.764400000000    -1.025      
O10      O2-    0.704500000000     0.080700000000     0.711150000000    -1.025      
O11      O2-    0.691550000000     0.078900000000     0.615300000000    -1.025      
O12      O2-    0.627600000000     0.079700000000     0.628900000000    -1.025      
O13      O2-    0.597650000000     0.025500000000     0.656700000000    -1.025      
O14      O2-    0.711600000000     0.025950000000     0.661550000000    -1.025      
O15      O2-    0.541950000000     0.436200000000     0.555200000000    -1.025      
O16      O2-    0.545700000000     0.000850000000     0.543200000000    -1.025      
O17      O2-    0.549000000000     0.065700000000     0.538050000000    -1.025      
O18      O2-    0.655700000000     0.435100000000     0.558200000000    -1.025      
O19      O2-    0.653000000000     0.499650000000     0.545900000000    -1.025      
O20      O2-    0.652450000000     0.064550000000     0.540500000000    -1.025      
O21      O2-    0.751850000000     0.474900000000     0.646000000000    -1.025      
O22      O2-    0.752000000000     0.076400000000     0.646100000000    -1.025      
O23      O2-    0.540400000000     0.125000000000     0.573000000000    -1.025      
O24      O2-    0.655800000000     0.125000000000     0.573100000000    -1.025      
O25      O2-    0.605850000000     0.125000000000     0.778950000000    -1.025      
O26      O2-    0.695750000000     0.125000000000     0.780550000000    -1.025      
Si1      Si4+   0.961190000000     0.221750000000     0.917990000000     2.05       
Si2      Si4+   0.903580000000     0.236140000000     0.844650000000     2.05       
Si3      Si4+   0.889555000000     0.219365000000     0.734400000000     2.05       
Si4      Si4+   0.811075000000     0.218510000000     0.736650000000     2.05       
Si5      Si4+   0.785640000000     0.236390000000     0.842755000000     2.05       
Si6      Si4+   0.843205000000     0.220520000000     0.914090000000     2.05       
Si7      Si4+   0.961325000000     0.336250000000     0.913590000000     2.05       
Si8      Si4+   0.903890000000     0.315080000000     0.842740000000     2.05       
Si9      Si4+   0.887770000000     0.336395000000     0.734455000000     2.05       
Si10     Si4+   0.810290000000     0.336550000000     0.735105000000     2.05       
Si11     Si4+   0.785220000000     0.315185000000     0.841000000000     2.05       
Si12     Si4+   0.843530000000     0.336635000000     0.909665000000     2.05       
O1       O2-    0.936300000000     0.223300000000     0.872100000000    -1.025      
O2       O2-    0.904200000000     0.220650000000     0.789450000000    -1.025      
O3       O2-    0.850350000000     0.220400000000     0.735550000000    -1.025      
O4       O2-    0.798450000000     0.219450000000     0.792800000000    -1.025      
O5       O2-    0.807450000000     0.222950000000     0.888150000000    -1.025      
O6       O2-    0.871750000000     0.222350000000     0.873000000000    -1.025      
O7       O2-    0.937100000000     0.328050000000     0.868600000000    -1.025      
O8       O2-    0.904250000000     0.327600000000     0.786400000000    -1.025      
O9       O2-    0.849000000000     0.327700000000     0.735600000000    -1.025      
O10      O2-    0.795500000000     0.330700000000     0.788850000000    -1.025      
O11      O2-    0.808450000000     0.328900000000     0.884700000000    -1.025      
O12      O2-    0.872400000000     0.329700000000     0.871100000000    -1.025      
O13      O2-    0.902350000000     0.275500000000     0.843300000000    -1.025      
O14      O2-    0.788400000000     0.275950000000     0.838450000000    -1.025      
O15      O2-    0.958050000000     0.186200000000     0.944800000000    -1.025      
O16      O2-    0.954300000000     0.250850000000     0.956800000000    -1.025      
O17      O2-    0.951000000000     0.315700000000     0.961950000000    -1.025      
O18      O2-    0.844300000000     0.185100000000     0.941800000000    -1.025      
O19      O2-    0.847000000000     0.249650000000     0.954100000000    -1.025      
O20      O2-    0.847550000000     0.314550000000     0.959500000000    -1.025      
O21      O2-    0.748150000000     0.224900000000     0.854000000000    -1.025      
O22      O2-    0.748000000000     0.326400000000     0.853900000000    -1.025      
O23      O2-    0.959600000000     0.375000000000     0.927000000000    -1.025      
O24      O2-    0.844200000000     0.375000000000     0.926900000000    -1.025      
O25      O2-    0.894150000000     0.375000000000     0.721050000000    -1.025      
O26      O2-    0.804250000000     0.375000000000     0.719450000000    -1.025      
Si1      Si4+   0.788810000000     0.278250000000     0.667990000000     2.05       
Si2      Si4+   0.846420000000     0.263860000000     0.594650000000     2.05       
Si3      Si4+   0.860445000000     0.280635000000     0.984400000000     2.05       
Si4      Si4+   0.938925000000     0.281490000000     0.986650000000     2.05       
Si5      Si4+   0.964360000000     0.263610000000     0.592755000000     2.05       
Si6      Si4+   0.906795000000     0.279480000000     0.664090000000     2.05       
Si7      Si4+   0.788675000000     0.163750000000     0.663590000000     2.05       
Si8      Si4+   0.846110000000     0.184920000000     0.592740000000     2.05       
Si9      Si4+   0.862230000000     0.163605000000     0.984455000000     2.05       
Si10     Si4+   0.939710000000     0.163450000000     0.985105000000     2.05       
Si11     Si4+   0.964780000000     0.184815000000     0.591000000000     2.05       
Si12     Si4+   0.906470000000     0.163365000000     0.659665000000     2.05       
O1       O2-    0.813700000000     0.276700000000     0.622100000000    -1.025      
O2       O2-    0.845800000000     0.279350000000     0.539450000000    -1.025      
O3       O2-    0.899650000000     0.279600000000     0.985550000000    -1.025      
O4       O2-    0.951550000000     0.280550000000     0.542800000000    -1.025      
O5       O2-    0.942550000000     0.277050000000     0.638150000000    -1.025      
O6       O2-    0.878250000000     0.277650000000     0.623000000000    -1.025      
O7       O2-    0.812900000000     0.171950000000     0.618600000000    -1.025      
O8       O2-    0.845750000000     0.172400000000     0.536400000000    -1.025      
O9       O2-    0.901000000000     0.172300000000     0.985600000000    -1.025      
O10      O2-    0.954500000000     0.169300000000     0.538850000000    -1.025      
O11      O2-    0.941550000000     0.171100000000     0.634700000000    -1.025      
O12      O2-    0.877600000000     0.170300000000     0.621100000000    -1.025      
O13      O2-    0.847650000000     0.224500000000     0.593300000000    -1.025      
O14      O2-    0.961600000000     0.224050000000     0.588450000000    -1.025      
O15      O2-    0.791950000000     0.313800000000     0.694800000000    -1.025      
O16      O2-    0.795700000000     0.249150000000     0.706800000000    -1.025      
O17      O2-    0.799000000000     0.184300000000     0.711950000000    -1.025      
O18      O2-    0.905700000000     0.314900000000     0.691800000000    -1.025      
O19      O2-    0.903000000000     0.250350000000     0.704100000000    -1.025      
O20      O2-    0.902450000000     0.185450000000     0.709500000000    -1.025      
O21      O2-    0.501850000000     0.275100000000     0.604000000000    -1.025      
O22      O2-    0.502000000000     0.173600000000     0.603900000000    -1.025      
O23      O2-    0.790400000000     0.125000000000     0.677000000000    -1.025      
O24      O2-    0.905800000000     0.125000000000     0.676900000000    -1.025      
O25      O2-    0.855850000000     0.125000000000     0.971050000000    -1.025      
O26      O2-    0.945750000000     0.125000000000     0.969450000000    -1.025      
Si1      Si4+   0.788810000000     0.471750000000     0.667990000000     2.05       
Si2      Si4+   0.846420000000     0.486140000000     0.594650000000     2.05       
Si3      Si4+   0.860445000000     0.469365000000     0.984400000000     2.05       
Si4      Si4+   0.938925000000     0.468510000000     0.986650000000     2.05       
Si5      Si4+   0.964360000000     0.486390000000     0.592755000000     2.05       
Si6      Si4+   0.906795000000     0.470520000000     0.664090000000     2.05       
Si7      Si4+   0.788675000000     0.086250000000     0.663590000000     2.05       
Si8      Si4+   0.846110000000     0.065080000000     0.592740000000     2.05       
Si9      Si4+   0.862230000000     0.086395000000     0.984455000000     2.05       
Si10     Si4+   0.939710000000     0.086550000000     0.985105000000     2.05       
Si11     Si4+   0.964780000000     0.065185000000     0.591000000000     2.05       
Si12     Si4+   0.906470000000     0.086635000000     0.659665000000     2.05       
O1       O2-    0.813700000000     0.473300000000     0.622100000000    -1.025      
O2       O2-    0.845800000000     0.470650000000     0.539450000000    -1.025      
O3       O2-    0.899650000000     0.470400000000     0.985550000000    -1.025      
O4       O2-    0.951550000000     0.469450000000     0.542800000000    -1.025      
O5       O2-    0.942550000000     0.472950000000     0.638150000000    -1.025      
O6       O2-    0.878250000000     0.472350000000     0.623000000000    -1.025      
O7       O2-    0.812900000000     0.078050000000     0.618600000000    -1.025      
O8       O2-    0.845750000000     0.077600000000     0.536400000000    -1.025      
O9       O2-    0.901000000000     0.077700000000     0.985600000000    -1.025      
O10      O2-    0.954500000000     0.080700000000     0.538850000000    -1.025      
O11      O2-    0.941550000000     0.078900000000     0.634700000000    -1.025      
O12      O2-    0.877600000000     0.079700000000     0.621100000000    -1.025      
O13      O2-    0.847650000000     0.025500000000     0.593300000000    -1.025      
O14      O2-    0.961600000000     0.025950000000     0.588450000000    -1.025      
O15      O2-    0.791950000000     0.436200000000     0.694800000000    -1.025      
O16      O2-    0.795700000000     0.000850000000     0.706800000000    -1.025      
O17      O2-    0.799000000000     0.065700000000     0.711950000000    -1.025      
O18      O2-    0.905700000000     0.435100000000     0.691800000000    -1.025      
O19      O2-    0.903000000000     0.499650000000     0.704100000000    -1.025      
O20      O2-    0.902450000000     0.064550000000     0.709500000000    -1.025      
O21      O2-    0.501850000000     0.474900000000     0.604000000000    -1.025      
O22      O2-    0.502000000000     0.076400000000     0.603900000000    -1.025      
Si1      Si4+   0.961190000000     0.028250000000     0.917990000000     2.05       
Si2      Si4+   0.903580000000     0.013860000000     0.844650000000     2.05       
Si3      Si4+   0.889555000000     0.030635000000     0.734400000000     2.05       
Si4      Si4+   0.811075000000     0.031490000000     0.736650000000     2.05       
Si5      Si4+   0.785640000000     0.013610000000     0.842755000000     2.05       
Si6      Si4+   0.843205000000     0.029480000000     0.914090000000     2.05       
Si7      Si4+   0.961325000000     0.413750000000     0.913590000000     2.05       
Si8      Si4+   0.903890000000     0.434920000000     0.842740000000     2.05       
Si9      Si4+   0.887770000000     0.413605000000     0.734455000000     2.05       
Si10     Si4+   0.810290000000     0.413450000000     0.735105000000     2.05       
Si11     Si4+   0.785220000000     0.434815000000     0.841000000000     2.05       
Si12     Si4+   0.843530000000     0.413365000000     0.909665000000     2.05       
O1       O2-    0.936300000000     0.026700000000     0.872100000000    -1.025      
O2       O2-    0.904200000000     0.029350000000     0.789450000000    -1.025      
O3       O2-    0.850350000000     0.029600000000     0.735550000000    -1.025      
O4       O2-    0.798450000000     0.030550000000     0.792800000000    -1.025      
O5       O2-    0.807450000000     0.027050000000     0.888150000000    -1.025      
O6       O2-    0.871750000000     0.027650000000     0.873000000000    -1.025      
O7       O2-    0.937100000000     0.421950000000     0.868600000000    -1.025      
O8       O2-    0.904250000000     0.422400000000     0.786400000000    -1.025      
O9       O2-    0.849000000000     0.422300000000     0.735600000000    -1.025      
O10      O2-    0.795500000000     0.419300000000     0.788850000000    -1.025      
O11      O2-    0.808450000000     0.421100000000     0.884700000000    -1.025      
O12      O2-    0.872400000000     0.420300000000     0.871100000000    -1.025      
O13      O2-    0.902350000000     0.474500000000     0.843300000000    -1.025      
O14      O2-    0.788400000000     0.474050000000     0.838450000000    -1.025      
O15      O2-    0.958050000000     0.063800000000     0.944800000000    -1.025      
O16      O2-    0.954300000000     0.499150000000     0.956800000000    -1.025      
O17      O2-    0.951000000000     0.434300000000     0.961950000000    -1.025      
O18      O2-    0.844300000000     0.064900000000     0.941800000000    -1.025      
O19      O2-    0.847000000000     0.000350000000     0.954100000000    -1.025      
O20      O2-    0.847550000000     0.435450000000     0.959500000000    -1.025      
O21      O2-    0.748150000000     0.025100000000     0.854000000000    -1.025      
O22      O2-    0.748000000000     0.423600000000     0.853900000000    -1.025      
Si1      Si4+   0.538810000000     0.278250000000     0.582010000000     2.05       
Si2      Si4+   0.596420000000     0.263860000000     0.655350000000     2.05       
Si3      Si4+   0.610445000000     0.280635000000     0.765600000000     2.05       
Si4      Si4+   0.688925000000     0.281490000000     0.763350000000     2.05       
Si5      Si4+   0.714360000000     0.263610000000     0.657245000000     2.05       
Si6      Si4+   0.656795000000     0.279480000000     0.585910000000     2.05       
Si7      Si4+   0.538675000000     0.163750000000     0.586410000000     2.05       
Si8      Si4+   0.596110000000     0.184920000000     0.657260000000     2.05       
Si9      Si4+   0.612230000000     0.163605000000     0.765545000000     2.05       
Si10     Si4+   0.689710000000     0.163450000000     0.764895000000     2.05       
Si11     Si4+   0.714780000000     0.184815000000     0.659000000000     2.05       
Si12     Si4+   0.656470000000     0.163365000000     0.590335000000     2.05       
O1       O2-    0.563700000000     0.276700000000     0.627900000000    -1.025      
O2       O2-    0.595800000000     0.279350000000     0.710550000000    -1.025      
O3       O2-    0.649650000000     0.279600000000     0.764450000000    -1.025      
O4       O2-    0.701550000000     0.280550000000     0.707200000000    -1.025      
O5       O2-    0.692550000000     0.277050000000     0.611850000000    -1.025      
O6       O2-    0.628250000000     0.277650000000     0.627000000000    -1.025      
O7       O2-    0.562900000000     0.171950000000     0.631400000000    -1.025      
O8       O2-    0.595750000000     0.172400000000     0.713600000000    -1.025      
O9       O2-    0.651000000000     0.172300000000     0.764400000000    -1.025      
O10      O2-    0.704500000000     0.169300000000     0.711150000000    -1.025      
O11      O2-    0.691550000000     0.171100000000     0.615300000000    -1.025      
O12      O2-    0.627600000000     0.170300000000     0.628900000000    -1.025      
O13      O2-    0.597650000000     0.224500000000     0.656700000000    -1.025      
O14      O2-    0.711600000000     0.224050000000     0.661550000000    -1.025      
O15      O2-    0.541950000000     0.313800000000     0.555200000000    -1.025      
O16      O2-    0.545700000000     0.249150000000     0.543200000000    -1.025      
O17      O2-    0.549000000000     0.184300000000     0.538050000000    -1.025      
O18      O2-    0.655700000000     0.314900000000     0.558200000000    -1.025      
O19      O2-    0.653000000000     0.250350000000     0.545900000000    -1.025      
O20      O2-    0.652450000000     0.185450000000     0.540500000000    -1.025      
O21      O2-    0.751850000000     0.275100000000     0.646000000000    -1.025      
O22      O2-    0.752000000000     0.173600000000     0.646100000000    -1.025      
Si1      Si4+   0.711190000000     0.221750000000     0.832010000000     2.05       
Si2      Si4+   0.653580000000     0.236140000000     0.905350000000     2.05       
Si3      Si4+   0.639555000000     0.219365000000     0.515600000000     2.05       
Si4      Si4+   0.561075000000     0.218510000000     0.513350000000     2.05       
Si5      Si4+   0.535640000000     0.236390000000     0.907245000000     2.05       
Si6      Si4+   0.593205000000     0.220520000000     0.835910000000     2.05       
Si7      Si4+   0.711325000000     0.336250000000     0.836410000000     2.05       
Si8      Si4+   0.653890000000     0.315080000000     0.907260000000     2.05       
Si9      Si4+   0.637770000000     0.336395000000     0.515545000000     2.05       
Si10     Si4+   0.560290000000     0.336550000000     0.514895000000     2.05       
Si11     Si4+   0.535220000000     0.315185000000     0.909000000000     2.05       
Si12     Si4+   0.593530000000     0.336635000000     0.840335000000     2.05       
O1       O2-    0.686300000000     0.223300000000     0.877900000000    -1.025      
O2       O2-    0.654200000000     0.220650000000     0.960550000000    -1.025      
O3       O2-    0.600350000000     0.220400000000     0.514450000000    -1.025      
O4       O2-    0.548450000000     0.219450000000     0.957200000000    -1.025      
O5       O2-    0.557450000000     0.222950000000     0.861850000000    -1.025      
O6       O2-    0.621750000000     0.222350000000     0.877000000000    -1.025      
O7       O2-    0.687100000000     0.328050000000     0.881400000000    -1.025      
O8       O2-    0.654250000000     0.327600000000     0.963600000000    -1.025      
O9       O2-    0.599000000000     0.327700000000     0.514400000000    -1.025      
O10      O2-    0.545500000000     0.330700000000     0.961150000000    -1.025      
O11      O2-    0.558450000000     0.328900000000     0.865300000000    -1.025      
O12      O2-    0.622400000000     0.329700000000     0.878900000000    -1.025      
O13      O2-    0.652350000000     0.275500000000     0.906700000000    -1.025      
O14      O2-    0.538400000000     0.275950000000     0.911550000000    -1.025      
O15      O2-    0.708050000000     0.186200000000     0.805200000000    -1.025      
O16      O2-    0.704300000000     0.250850000000     0.793200000000    -1.025      
O17      O2-    0.701000000000     0.315700000000     0.788050000000    -1.025      
O18      O2-    0.594300000000     0.185100000000     0.808200000000    -1.025      
O19      O2-    0.597000000000     0.249650000000     0.795900000000    -1.025      
O20      O2-    0.597550000000     0.314550000000     0.790500000000    -1.025      
O21      O2-    0.998150000000     0.224900000000     0.896000000000    -1.025      
O22      O2-    0.998000000000     0.326400000000     0.896100000000    -1.025      
Si1      Si4+   0.711190000000     0.528250000000     0.332010000000     2.05       
Si2      Si4+   0.653580000000     0.513860000000     0.405350000000     2.05       
Si3      Si4+   0.639555000000     0.530635000000     0.015600000000     2.05       
Si4      Si4+   0.561075000000     0.531490000000     0.013350000000     2.05       
Si5      Si4+   0.535640000000     0.513610000000     0.407245000000     2.05       
Si6      Si4+   0.593205000000     0.529480000000     0.335910000000     2.05       
Si7      Si4+   0.711325000000     0.913750000000     0.336410000000     2.05       
Si8      Si4+   0.653890000000     0.934920000000     0.407260000000     2.05       
Si9      Si4+   0.637770000000     0.913605000000     0.015545000000     2.05       
Si10     Si4+   0.560290000000     0.913450000000     0.014895000000     2.05       
Si11     Si4+   0.535220000000     0.934815000000     0.409000000000     2.05       
Si12     Si4+   0.593530000000     0.913365000000     0.340335000000     2.05       
O1       O2-    0.686300000000     0.526700000000     0.377900000000    -1.025      
O2       O2-    0.654200000000     0.529350000000     0.460550000000    -1.025      
O3       O2-    0.600350000000     0.529600000000     0.014450000000    -1.025      
O4       O2-    0.548450000000     0.530550000000     0.457200000000    -1.025      
O5       O2-    0.557450000000     0.527050000000     0.361850000000    -1.025      
O6       O2-    0.621750000000     0.527650000000     0.377000000000    -1.025      
O7       O2-    0.687100000000     0.921950000000     0.381400000000    -1.025      
O8       O2-    0.654250000000     0.922400000000     0.463600000000    -1.025      
O9       O2-    0.599000000000     0.922300000000     0.014400000000    -1.025      
O10      O2-    0.545500000000     0.919300000000     0.461150000000    -1.025      
O11      O2-    0.558450000000     0.921100000000     0.365300000000    -1.025      
O12      O2-    0.622400000000     0.920300000000     0.378900000000    -1.025      
O13      O2-    0.652350000000     0.974500000000     0.406700000000    -1.025      
O14      O2-    0.538400000000     0.974050000000     0.411550000000    -1.025      
O15      O2-    0.708050000000     0.563800000000     0.305200000000    -1.025      
O16      O2-    0.704300000000     0.999150000000     0.293200000000    -1.025      
O17      O2-    0.701000000000     0.934300000000     0.288050000000    -1.025      
O18      O2-    0.594300000000     0.564900000000     0.308200000000    -1.025      
O19      O2-    0.597000000000     0.500350000000     0.295900000000    -1.025      
O20      O2-    0.597550000000     0.935450000000     0.290500000000    -1.025      
O21      O2-    0.998150000000     0.525100000000     0.396000000000    -1.025      
O22      O2-    0.998000000000     0.923600000000     0.396100000000    -1.025      
O23      O2-    0.709600000000     0.875000000000     0.323000000000    -1.025      
O24      O2-    0.594200000000     0.875000000000     0.323100000000    -1.025      
O25      O2-    0.644150000000     0.875000000000     0.028950000000    -1.025      
O26      O2-    0.554250000000     0.875000000000     0.030550000000    -1.025      
Si1      Si4+   0.538810000000     0.971750000000     0.082010000000     2.05       
Si2      Si4+   0.596420000000     0.986140000000     0.155350000000     2.05       
Si3      Si4+   0.610445000000     0.969365000000     0.265600000000     2.05       
Si4      Si4+   0.688925000000     0.968510000000     0.263350000000     2.05       
Si5      Si4+   0.714360000000     0.986390000000     0.157245000000     2.05       
Si6      Si4+   0.656795000000     0.970520000000     0.085910000000     2.05       
Si7      Si4+   0.538675000000     0.586250000000     0.086410000000     2.05       
Si8      Si4+   0.596110000000     0.565080000000     0.157260000000     2.05       
Si9      Si4+   0.612230000000     0.586395000000     0.265545000000     2.05       
Si10     Si4+   0.689710000000     0.586550000000     0.264895000000     2.05       
Si11     Si4+   0.714780000000     0.565185000000     0.159000000000     2.05       
Si12     Si4+   0.656470000000     0.586635000000     0.090335000000     2.05       
O1       O2-    0.563700000000     0.973300000000     0.127900000000    -1.025      
O2       O2-    0.595800000000     0.970650000000     0.210550000000    -1.025      
O3       O2-    0.649650000000     0.970400000000     0.264450000000    -1.025      
O4       O2-    0.701550000000     0.969450000000     0.207200000000    -1.025      
O5       O2-    0.692550000000     0.972950000000     0.111850000000    -1.025      
O6       O2-    0.628250000000     0.972350000000     0.127000000000    -1.025      
O7       O2-    0.562900000000     0.578050000000     0.131400000000    -1.025      
O8       O2-    0.595750000000     0.577600000000     0.213600000000    -1.025      
O9       O2-    0.651000000000     0.577700000000     0.264400000000    -1.025      
O10      O2-    0.704500000000     0.580700000000     0.211150000000    -1.025      
O11      O2-    0.691550000000     0.578900000000     0.115300000000    -1.025      
O12      O2-    0.627600000000     0.579700000000     0.128900000000    -1.025      
O13      O2-    0.597650000000     0.525500000000     0.156700000000    -1.025      
O14      O2-    0.711600000000     0.525950000000     0.161550000000    -1.025      
O15      O2-    0.541950000000     0.936200000000     0.055200000000    -1.025      
O16      O2-    0.545700000000     0.500850000000     0.043200000000    -1.025      
O17      O2-    0.549000000000     0.565700000000     0.038050000000    -1.025      
O18      O2-    0.655700000000     0.935100000000     0.058200000000    -1.025      
O19      O2-    0.653000000000     0.999650000000     0.045900000000    -1.025      
O20      O2-    0.652450000000     0.564550000000     0.040500000000    -1.025      
O21      O2-    0.751850000000     0.974900000000     0.146000000000    -1.025      
O22      O2-    0.752000000000     0.576400000000     0.146100000000    -1.025      
O23      O2-    0.540400000000     0.625000000000     0.073000000000    -1.025      
O24      O2-    0.655800000000     0.625000000000     0.073100000000    -1.025      
O25      O2-    0.605850000000     0.625000000000     0.278950000000    -1.025      
O26      O2-    0.695750000000     0.625000000000     0.280550000000    -1.025      
Si1      Si4+   0.961190000000     0.721750000000     0.417990000000     2.05       
Si2      Si4+   0.903580000000     0.736140000000     0.344650000000     2.05       
Si3      Si4+   0.889555000000     0.719365000000     0.234400000000     2.05       
Si4      Si4+   0.811075000000     0.718510000000     0.236650000000     2.05       
Si5      Si4+   0.785640000000     0.736390000000     0.342755000000     2.05       
Si6      Si4+   0.843205000000     0.720520000000     0.414090000000     2.05       
Si7      Si4+   0.961325000000     0.836250000000     0.413590000000     2.05       
Si8      Si4+   0.903890000000     0.815080000000     0.342740000000     2.05       
Si9      Si4+   0.887770000000     0.836395000000     0.234455000000     2.05       
Si10     Si4+   0.810290000000     0.836550000000     0.235105000000     2.05       
Si11     Si4+   0.785220000000     0.815185000000     0.341000000000     2.05       
Si12     Si4+   0.843530000000     0.836635000000     0.409665000000     2.05       
O1       O2-    0.936300000000     0.723300000000     0.372100000000    -1.025      
O2       O2-    0.904200000000     0.720650000000     0.289450000000    -1.025      
O3       O2-    0.850350000000     0.720400000000     0.235550000000    -1.025      
O4       O2-    0.798450000000     0.719450000000     0.292800000000    -1.025      
O5       O2-    0.807450000000     0.722950000000     0.388150000000    -1.025      
O6       O2-    0.871750000000     0.722350000000     0.373000000000    -1.025      
O7       O2-    0.937100000000     0.828050000000     0.368600000000    -1.025      
O8       O2-    0.904250000000     0.827600000000     0.286400000000    -1.025      
O9       O2-    0.849000000000     0.827700000000     0.235600000000    -1.025      
O10      O2-    0.795500000000     0.830700000000     0.288850000000    -1.025      
O11      O2-    0.808450000000     0.828900000000     0.384700000000    -1.025      
O12      O2-    0.872400000000     0.829700000000     0.371100000000    -1.025      
O13      O2-    0.902350000000     0.775500000000     0.343300000000    -1.025      
O14      O2-    0.788400000000     0.775950000000     0.338450000000    -1.025      
O15      O2-    0.958050000000     0.686200000000     0.444800000000    -1.025      
O16      O2-    0.954300000000     0.750850000000     0.456800000000    -1.025      
O17      O2-    0.951000000000     0.815700000000     0.461950000000    -1.025      
O18      O2-    0.844300000000     0.685100000000     0.441800000000    -1.025      
O19      O2-    0.847000000000     0.749650000000     0.454100000000    -1.025      
O20      O2-    0.847550000000     0.814550000000     0.459500000000    -1.025      
O21      O2-    0.748150000000     0.724900000000     0.354000000000    -1.025      
O22      O2-    0.748000000000     0.826400000000     0.353900000000    -1.025      
O23      O2-    0.959600000000     0.875000000000     0.427000000000    -1.025      
O24      O2-    0.844200000000     0.875000000000     0.426900000000    -1.025      
O25      O2-    0.894150000000     0.875000000000     0.221050000000    -1.025      
O26      O2-    0.804250000000     0.875000000000     0.219450000000    -1.025      
Si1      Si4+   0.788810000000     0.778250000000     0.167990000000     2.05       
Si2      Si4+   0.846420000000     0.763860000000     0.094650000000     2.05       
Si3      Si4+   0.860445000000     0.780635000000     0.484400000000     2.05       
Si4      Si4+   0.938925000000     0.781490000000     0.486650000000     2.05       
Si5      Si4+   0.964360000000     0.763610000000     0.092755000000     2.05       
Si6      Si4+   0.906795000000     0.779480000000     0.164090000000     2.05       
Si7      Si4+   0.788675000000     0.663750000000     0.163590000000     2.05       
Si8      Si4+   0.846110000000     0.684920000000     0.092740000000     2.05       
Si9      Si4+   0.862230000000     0.663605000000     0.484455000000     2.05       
Si10     Si4+   0.939710000000     0.663450000000     0.485105000000     2.05       
Si11     Si4+   0.964780000000     0.684815000000     0.091000000000     2.05       
Si12     Si4+   0.906470000000     0.663365000000     0.159665000000     2.05       
O1       O2-    0.813700000000     0.776700000000     0.122100000000    -1.025      
O2       O2-    0.845800000000     0.779350000000     0.039450000000    -1.025      
O3       O2-    0.899650000000     0.779600000000     0.485550000000    -1.025      
O4       O2-    0.951550000000     0.780550000000     0.042800000000    -1.025      
O5       O2-    0.942550000000     0.777050000000     0.138150000000    -1.025      
O6       O2-    0.878250000000     0.777650000000     0.123000000000    -1.025      
O7       O2-    0.812900000000     0.671950000000     0.118600000000    -1.025      
O8       O2-    0.845750000000     0.672400000000     0.036400000000    -1.025      
O9       O2-    0.901000000000     0.672300000000     0.485600000000    -1.025      
O10      O2-    0.954500000000     0.669300000000     0.038850000000    -1.025      
O11      O2-    0.941550000000     0.671100000000     0.134700000000    -1.025      
O12      O2-    0.877600000000     0.670300000000     0.121100000000    -1.025      
O13      O2-    0.847650000000     0.724500000000     0.093300000000    -1.025      
O14      O2-    0.961600000000     0.724050000000     0.088450000000    -1.025      
O15      O2-    0.791950000000     0.813800000000     0.194800000000    -1.025      
O16      O2-    0.795700000000     0.749150000000     0.206800000000    -1.025      
O17      O2-    0.799000000000     0.684300000000     0.211950000000    -1.025      
O18      O2-    0.905700000000     0.814900000000     0.191800000000    -1.025      
O19      O2-    0.903000000000     0.750350000000     0.204100000000    -1.025      
O20      O2-    0.902450000000     0.685450000000     0.209500000000    -1.025      
O21      O2-    0.501850000000     0.775100000000     0.104000000000    -1.025      
O22      O2-    0.502000000000     0.673600000000     0.103900000000    -1.025      
O23      O2-    0.790400000000     0.625000000000     0.177000000000    -1.025      
O24      O2-    0.905800000000     0.625000000000     0.176900000000    -1.025      
O25      O2-    0.855850000000     0.625000000000     0.471050000000    -1.025      
O26      O2-    0.945750000000     0.625000000000     0.469450000000    -1.025      
Si1      Si4+   0.788810000000     0.971750000000     0.167990000000     2.05       
Si2      Si4+   0.846420000000     0.986140000000     0.094650000000     2.05       
Si3      Si4+   0.860445000000     0.969365000000     0.484400000000     2.05       
Si4      Si4+   0.938925000000     0.968510000000     0.486650000000     2.05       
Si5      Si4+   0.964360000000     0.986390000000     0.092755000000     2.05       
Si6      Si4+   0.906795000000     0.970520000000     0.164090000000     2.05       
Si7      Si4+   0.788675000000     0.586250000000     0.163590000000     2.05       
Si8      Si4+   0.846110000000     0.565080000000     0.092740000000     2.05       
Si9      Si4+   0.862230000000     0.586395000000     0.484455000000     2.05       
Si10     Si4+   0.939710000000     0.586550000000     0.485105000000     2.05       
Si11     Si4+   0.964780000000     0.565185000000     0.091000000000     2.05       
Si12     Si4+   0.906470000000     0.586635000000     0.159665000000     2.05       
O1       O2-    0.813700000000     0.973300000000     0.122100000000    -1.025      
O2       O2-    0.845800000000     0.970650000000     0.039450000000    -1.025      
O3       O2-    0.899650000000     0.970400000000     0.485550000000    -1.025      
O4       O2-    0.951550000000     0.969450000000     0.042800000000    -1.025      
O5       O2-    0.942550000000     0.972950000000     0.138150000000    -1.025      
O6       O2-    0.878250000000     0.972350000000     0.123000000000    -1.025      
O7       O2-    0.812900000000     0.578050000000     0.118600000000    -1.025      
O8       O2-    0.845750000000     0.577600000000     0.036400000000    -1.025      
O9       O2-    0.901000000000     0.577700000000     0.485600000000    -1.025      
O10      O2-    0.954500000000     0.580700000000     0.038850000000    -1.025      
O11      O2-    0.941550000000     0.578900000000     0.134700000000    -1.025      
O12      O2-    0.877600000000     0.579700000000     0.121100000000    -1.025      
O13      O2-    0.847650000000     0.525500000000     0.093300000000    -1.025      
O14      O2-    0.961600000000     0.525950000000     0.088450000000    -1.025      
O15      O2-    0.791950000000     0.936200000000     0.194800000000    -1.025      
O16      O2-    0.795700000000     0.500850000000     0.206800000000    -1.025      
O17      O2-    0.799000000000     0.565700000000     0.211950000000    -1.025      
O18      O2-    0.905700000000     0.935100000000     0.191800000000    -1.025      
O19      O2-    0.903000000000     0.999650000000     0.204100000000    -1.025      
O20      O2-    0.902450000000     0.564550000000     0.209500000000    -1.025      
O21      O2-    0.501850000000     0.974900000000     0.104000000000    -1.025      
O22      O2-    0.502000000000     0.576400000000     0.103900000000    -1.025      
Si1      Si4+   0.961190000000     0.528250000000     0.417990000000     2.05       
Si2      Si4+   0.903580000000     0.513860000000     0.344650000000     2.05       
Si3      Si4+   0.889555000000     0.530635000000     0.234400000000     2.05       
Si4      Si4+   0.811075000000     0.531490000000     0.236650000000     2.05       
Si5      Si4+   0.785640000000     0.513610000000     0.342755000000     2.05       
Si6      Si4+   0.843205000000     0.529480000000     0.414090000000     2.05       
Si7      Si4+   0.961325000000     0.913750000000     0.413590000000     2.05       
Si8      Si4+   0.903890000000     0.934920000000     0.342740000000     2.05       
Si9      Si4+   0.887770000000     0.913605000000     0.234455000000     2.05       
Si10     Si4+   0.810290000000     0.913450000000     0.235105000000     2.05       
Si11     Si4+   0.785220000000     0.934815000000     0.341000000000     2.05       
Si12     Si4+   0.843530000000     0.913365000000     0.409665000000     2.05       
O1       O2-    0.936300000000     0.526700000000     0.372100000000    -1.025      
O2       O2-    0.904200000000     0.529350000000     0.289450000000    -1.025      
O3       O2-    0.850350000000     0.529600000000     0.235550000000    -1.025      
O4       O2-    0.798450000000     0.530550000000     0.292800000000    -1.025      
O5       O2-    0.807450000000     0.527050000000     0.388150000000    -1.025      
O6       O2-    0.871750000000     0.527650000000     0.373000000000    -1.025      
O7       O2-    0.937100000000     0.921950000000     0.368600000000    -1.025      
O8       O2-    0.904250000000     0.922400000000     0.286400000000    -1.025      
O9       O2-    0.849000000000     0.922300000000     0.235600000000    -1.025      
O10      O2-    0.795500000000     0.919300000000     0.288850000000    -1.025      
O11      O2-    0.808450000000     0.921100000000     0.384700000000    -1.025      
O12      O2-    0.872400000000     0.920300000000     0.371100000000    -1.025      
O13      O2-    0.902350000000     0.974500000000     0.343300000000    -1.025      
O14      O2-    0.788400000000     0.974050000000     0.338450000000    -1.025      
O15      O2-    0.958050000000     0.563800000000     0.444800000000    -1.025      
O16      O2-    0.954300000000     0.999150000000     0.456800000000    -1.025      
O17      O2-    0.951000000000     0.934300000000     0.461950000000    -1.025      
O18      O2-    0.844300000000     0.564900000000     0.441800000000    -1.025      
O19      O2-    0.847000000000     0.500350000000     0.454100000000    -1.025      
O20      O2-    0.847550000000     0.935450000000     0.459500000000    -1.025      
O21      O2-    0.748150000000     0.525100000000     0.354000000000    -1.025      
O22      O2-    0.748000000000     0.923600000000     0.353900000000    -1.025      
Si1      Si4+   0.538810000000     0.778250000000     0.082010000000     2.05       
Si2      Si4+   0.596420000000     0.763860000000     0.155350000000     2.05       
Si3      Si4+   0.610445000000     0.780635000000     0.265600000000     2.05       
Si4      Si4+   0.688925000000     0.781490000000     0.263350000000     2.05       
Si5      Si4+   0.714360000000     0.763610000000     0.157245000000     2.05       
Si6      Si4+   0.656795000000     0.779480000000     0.085910000000     2.05       
Si7      Si4+   0.538675000000     0.663750000000     0.086410000000     2.05       
Si8      Si4+   0.596110000000     0.684920000000     0.157260000000     2.05       
Si9      Si4+   0.612230000000     0.663605000000     0.265545000000     2.05       
Si10     Si4+   0.689710000000     0.663450000000     0.264895000000     2.05       
Si11     Si4+   0.714780000000     0.684815000000     0.159000000000     2.05       
Si12     Si4+   0.656470000000     0.663365000000     0.090335000000     2.05       
O1       O2-    0.563700000000     0.776700000000     0.127900000000    -1.025      
O2       O2-    0.595800000000     0.779350000000     0.210550000000    -1.025      
O3       O2-    0.649650000000     0.779600000000     0.264450000000    -1.025      
O4       O2-    0.701550000000     0.780550000000     0.207200000000    -1.025      
O5       O2-    0.692550000000     0.777050000000     0.111850000000    -1.025      
O6       O2-    0.628250000000     0.777650000000     0.127000000000    -1.025      
O7       O2-    0.562900000000     0.671950000000     0.131400000000    -1.025      
O8       O2-    0.595750000000     0.672400000000     0.213600000000    -1.025      
O9       O2-    0.651000000000     0.672300000000     0.264400000000    -1.025      
O10      O2-    0.704500000000     0.669300000000     0.211150000000    -1.025      
O11      O2-    0.691550000000     0.671100000000     0.115300000000    -1.025      
O12      O2-    0.627600000000     0.670300000000     0.128900000000    -1.025      
O13      O2-    0.597650000000     0.724500000000     0.156700000000    -1.025      
O14      O2-    0.711600000000     0.724050000000     0.161550000000    -1.025      
O15      O2-    0.541950000000     0.813800000000     0.055200000000    -1.025      
O16      O2-    0.545700000000     0.749150000000     0.043200000000    -1.025      
O17      O2-    0.549000000000     0.684300000000     0.038050000000    -1.025      
O18      O2-    0.655700000000     0.814900000000     0.058200000000    -1.025      
O19      O2-    0.653000000000     0.750350000000     0.045900000000    -1.025      
O20      O2-    0.652450000000     0.685450000000     0.040500000000    -1.025      
O21      O2-    0.751850000000     0.775100000000     0.146000000000    -1.025      
O22      O2-    0.752000000000     0.673600000000     0.146100000000    -1.025      
Si1      Si4+   0.711190000000     0.721750000000     0.332010000000     2.05       
Si2      Si4+   0.653580000000     0.736140000000     0.405350000000     2.05       
Si3      Si4+   0.639555000000     0.719365000000     0.015600000000     2.05       
Si4      Si4+   0.561075000000     0.718510000000     0.013350000000     2.05       
Si5      Si4+   0.535640000000     0.736390000000     0.407245000000     2.05       
Si6      Si4+   0.593205000000     0.720520000000     0.335910000000     2.05       
Si7      Si4+   0.711325000000     0.836250000000     0.336410000000     2.05       
Si8      Si4+   0.653890000000     0.815080000000     0.407260000000     2.05       
Si9      Si4+   0.637770000000     0.836395000000     0.015545000000     2.05       
Si10     Si4+   0.560290000000     0.836550000000     0.014895000000     2.05       
Si11     Si4+   0.535220000000     0.815185000000     0.409000000000     2.05       
Si12     Si4+   0.593530000000     0.836635000000     0.340335000000     2.05       
O1       O2-    0.686300000000     0.723300000000     0.377900000000    -1.025      
O2       O2-    0.654200000000     0.720650000000     0.460550000000    -1.025      
O3       O2-    0.600350000000     0.720400000000     0.014450000000    -1.025      
O4       O2-    0.548450000000     0.719450000000     0.457200000000    -1.025      
O5       O2-    0.557450000000     0.722950000000     0.361850000000    -1.025      
O6       O2-    0.621750000000     0.722350000000     0.377000000000    -1.025      
O7       O2-    0.687100000000     0.828050000000     0.381400000000    -1.025      
O8       O2-    0.654250000000     0.827600000000     0.463600000000    -1.025      
O9       O2-    0.599000000000     0.827700000000     0.014400000000    -1.025      
O10      O2-    0.545500000000     0.830700000000     0.461150000000    -1.025      
O11      O2-    0.558450000000     0.828900000000     0.365300000000    -1.025      
O12      O2-    0.622400000000     0.829700000000     0.378900000000    -1.025      
O13      O2-    0.652350000000     0.775500000000     0.406700000000    -1.025      
O14      O2-    0.538400000000     0.775950000000     0.411550000000    -1.025      
O15      O2-    0.708050000000     0.686200000000     0.305200000000    -1.025      
O16      O2-    0.704300000000     0.750850000000     0.293200000000    -1.025      
O17      O2-    0.701000000000     0.815700000000     0.288050000000    -1.025      
O18      O2-    0.594300000000     0.685100000000     0.308200000000    -1.025      
O19      O2-    0.597000000000     0.749650000000     0.295900000000    -1.025      
O20      O2-    0.597550000000     0.814550000000     0.290500000000    -1.025      
O21      O2-    0.998150000000     0.724900000000     0.396000000000    -1.025      
O22      O2-    0.998000000000     0.826400000000     0.396100000000    -1.025      
Si1      Si4+   0.711190000000     0.528250000000     0.832010000000     2.05       
Si2      Si4+   0.653580000000     0.513860000000     0.905350000000     2.05       
Si3      Si4+   0.639555000000     0.530635000000     0.515600000000     2.05       
Si4      Si4+   0.561075000000     0.531490000000     0.513350000000     2.05       
Si5      Si4+   0.535640000000     0.513610000000     0.907245000000     2.05       
Si6      Si4+   0.593205000000     0.529480000000     0.835910000000     2.05       
Si7      Si4+   0.711325000000     0.913750000000     0.836410000000     2.05       
Si8      Si4+   0.653890000000     0.934920000000     0.907260000000     2.05       
Si9      Si4+   0.637770000000     0.913605000000     0.515545000000     2.05       
Si10     Si4+   0.560290000000     0.913450000000     0.514895000000     2.05       
Si11     Si4+   0.535220000000     0.934815000000     0.909000000000     2.05       
Si12     Si4+   0.593530000000     0.913365000000     0.840335000000     2.05       
O1       O2-    0.686300000000     0.526700000000     0.877900000000    -1.025      
O2       O2-    0.654200000000     0.529350000000     0.960550000000    -1.025      
O3       O2-    0.600350000000     0.529600000000     0.514450000000    -1.025      
O4       O2-    0.548450000000     0.530550000000     0.957200000000    -1.025      
O5       O2-    0.557450000000     0.527050000000     0.861850000000    -1.025      
O6       O2-    0.621750000000     0.527650000000     0.877000000000    -1.025      
O7       O2-    0.687100000000     0.921950000000     0.881400000000    -1.025      
O8       O2-    0.654250000000     0.922400000000     0.963600000000    -1.025      
O9       O2-    0.599000000000     0.922300000000     0.514400000000    -1.025      
O10      O2-    0.545500000000     0.919300000000     0.961150000000    -1.025      
O11      O2-    0.558450000000     0.921100000000     0.865300000000    -1.025      
O12      O2-    0.622400000000     0.920300000000     0.878900000000    -1.025      
O13      O2-    0.652350000000     0.974500000000     0.906700000000    -1.025      
O14      O2-    0.538400000000     0.974050000000     0.911550000000    -1.025      
O15      O2-    0.708050000000     0.563800000000     0.805200000000    -1.025      
O16      O2-    0.704300000000     0.999150000000     0.793200000000    -1.025      
O17      O2-    0.701000000000     0.934300000000     0.788050000000    -1.025      
O18      O2-    0.594300000000     0.564900000000     0.808200000000    -1.025      
O19      O2-    0.597000000000     0.500350000000     0.795900000000    -1.025      
O20      O2-    0.597550000000     0.935450000000     0.790500000000    -1.025      
O21      O2-    0.998150000000     0.525100000000     0.896000000000    -1.025      
O22      O2-    0.998000000000     0.923600000000     0.896100000000    -1.025      
O23      O2-    0.709600000000     0.875000000000     0.823000000000    -1.025      
O24      O2-    0.594200000000     0.875000000000     0.823100000000    -1.025      
O25      O2-    0.644150000000     0.875000000000     0.528950000000    -1.025      
O26      O2-    0.554250000000     0.875000000000     0.530550000000    -1.025      
Si1      Si4+   0.538810000000     0.971750000000     0.582010000000     2.05       
Si2      Si4+   0.596420000000     0.986140000000     0.655350000000     2.05       
Si3      Si4+   0.610445000000     0.969365000000     0.765600000000     2.05       
Si4      Si4+   0.688925000000     0.968510000000     0.763350000000     2.05       
Si5      Si4+   0.714360000000     0.986390000000     0.657245000000     2.05       
Si6      Si4+   0.656795000000     0.970520000000     0.585910000000     2.05       
Si7      Si4+   0.538675000000     0.586250000000     0.586410000000     2.05       
Si8      Si4+   0.596110000000     0.565080000000     0.657260000000     2.05       
Si9      Si4+   0.612230000000     0.586395000000     0.765545000000     2.05       
Si10     Si4+   0.689710000000     0.586550000000     0.764895000000     2.05       
Si11     Si4+   0.714780000000     0.565185000000     0.659000000000     2.05       
Si12     Si4+   0.656470000000     0.586635000000     0.590335000000     2.05       
O1       O2-    0.563700000000     0.973300000000     0.627900000000    -1.025      
O2       O2-    0.595800000000     0.970650000000     0.710550000000    -1.025      
O3       O2-    0.649650000000     0.970400000000     0.764450000000    -1.025      
O4       O2-    0.701550000000     0.969450000000     0.707200000000    -1.025      
O5       O2-    0.692550000000     0.972950000000     0.611850000000    -1.025      
O6       O2-    0.628250000000     0.972350000000     0.627000000000    -1.025      
O7       O2-    0.562900000000     0.578050000000     0.631400000000    -1.025      
O8       O2-    0.595750000000     0.577600000000     0.713600000000    -1.025      
O9       O2-    0.651000000000     0.577700000000     0.764400000000    -1.025      
O10      O2-    0.704500000000     0.580700000000     0.711150000000    -1.025      
O11      O2-    0.691550000000     0.578900000000     0.615300000000    -1.025      
O12      O2-    0.627600000000     0.579700000000     0.628900000000    -1.025      
O13      O2-    0.597650000000     0.525500000000     0.656700000000    -1.025      
O14      O2-    0.711600000000     0.525950000000     0.661550000000    -1.025      
O15      O2-    0.541950000000     0.936200000000     0.555200000000    -1.025      
O16      O2-    0.545700000000     0.500850000000     0.543200000000    -1.025      
O17      O2-    0.549000000000     0.565700000000     0.538050000000    -1.025      
O18      O2-    0.655700000000     0.935100000000     0.558200000000    -1.025      
O19      O2-    0.653000000000     0.999650000000     0.545900000000    -1.025      
O20      O2-    0.652450000000     0.564550000000     0.540500000000    -1.025      
O21      O2-    0.751850000000     0.974900000000     0.646000000000    -1.025      
O22      O2-    0.752000000000     0.576400000000     0.646100000000    -1.025      
O23      O2-    0.540400000000     0.625000000000     0.573000000000    -1.025      
O24      O2-    0.655800000000     0.625000000000     0.573100000000    -1.025      
O25      O2-    0.605850000000     0.625000000000     0.778950000000    -1.025      
O26      O2-    0.695750000000     0.625000000000     0.780550000000    -1.025      
Si1      Si4+   0.961190000000     0.721750000000     0.917990000000     2.05       
Si2      Si4+   0.903580000000     0.736140000000     0.844650000000     2.05       
Si3      Si4+   0.889555000000     0.719365000000     0.734400000000     2.05       
Si4      Si4+   0.811075000000     0.718510000000     0.736650000000     2.05       
Si5      Si4+   0.785640000000     0.736390000000     0.842755000000     2.05       
Si6      Si4+   0.843205000000     0.720520000000     0.914090000000     2.05       
Si7      Si4+   0.961325000000     0.836250000000     0.913590000000     2.05       
Si8      Si4+   0.903890000000     0.815080000000     0.842740000000     2.05       
Si9      Si4+   0.887770000000     0.836395000000     0.734455000000     2.05       
Si10     Si4+   0.810290000000     0.836550000000     0.735105000000     2.05       
Si11     Si4+   0.785220000000     0.815185000000     0.841000000000     2.05       
Si12     Si4+   0.843530000000     0.836635000000     0.909665000000     2.05       
O1       O2-    0.936300000000     0.723300000000     0.872100000000    -1.025      
O2       O2-    0.904200000000     0.720650000000     0.789450000000    -1.025      
O3       O2-    0.850350000000     0.720400000000     0.735550000000    -1.025      
O4       O2-    0.798450000000     0.719450000000     0.792800000000    -1.025      
O5       O2-    0.807450000000     0.722950000000     0.888150000000    -1.025      
O6       O2-    0.871750000000     0.722350000000     0.873000000000    -1.025      
O7       O2-    0.937100000000     0.828050000000     0.868600000000    -1.025      
O8       O2-    0.904250000000     0.827600000000     0.786400000000    -1.025      
O9       O2-    0.849000000000     0.827700000000     0.735600000000    -1.025      
O10      O2-    0.795500000000     0.830700000000     0.788850000000    -1.025      
O11      O2-    0.808450000000     0.828900000000     0.884700000000    -1.025      
O12      O2-    0.872400000000     0.829700000000     0.871100000000    -1.025      
O13      O2-    0.902350000000     0.775500000000     0.843300000000    -1.025      
O14      O2-    0.788400000000     0.775950000000     0.838450000000    -1.025      
O15      O2-    0.958050000000     0.686200000000     0.944800000000    -1.025      
O16      O2-    0.954300000000     0.750850000000     0.956800000000    -1.025      
O17      O2-    0.951000000000     0.815700000000     0.961950000000    -1.025      
O18      O2-    0.844300000000     0.685100000000     0.941800000000    -1.025      
O19      O2-    0.847000000000     0.749650000000     0.954100000000    -1.025      
O20      O2-    0.847550000000     0.814550000000     0.959500000000    -1.025      
O21      O2-    0.748150000000     0.724900000000     0.854000000000    -1.025      
O22      O2-    0.748000000000     0.826400000000     0.853900000000    -1.025      
O23      O2-    0.959600000000     0.875000000000     0.927000000000    -1.025      
O24      O2-    0.844200000000     0.875000000000     0.926900000000    -1.025      
O25      O2-    0.894150000000     0.875000000000     0.721050000000    -1.025      
O26      O2-    0.804250000000     0.875000000000     0.719450000000    -1.025      
Si1      Si4+   0.788810000000     0.778250000000     0.667990000000     2.05       
Si2      Si4+   0.846420000000     0.763860000000     0.594650000000     2.05       
Si3      Si4+   0.860445000000     0.780635000000     0.984400000000     2.05       
Si4      Si4+   0.938925000000     0.781490000000     0.986650000000     2.05       
Si5      Si4+   0.964360000000     0.763610000000     0.592755000000     2.05       
Si6      Si4+   0.906795000000     0.779480000000     0.664090000000     2.05       
Si7      Si4+   0.788675000000     0.663750000000     0.663590000000     2.05       
Si8      Si4+   0.846110000000     0.684920000000     0.592740000000     2.05       
Si9      Si4+   0.862230000000     0.663605000000     0.984455000000     2.05       
Si10     Si4+   0.939710000000     0.663450000000     0.985105000000     2.05       
Si11     Si4+   0.964780000000     0.684815000000     0.591000000000     2.05       
Si12     Si4+   0.906470000000     0.663365000000     0.659665000000     2.05       
O1       O2-    0.813700000000     0.776700000000     0.622100000000    -1.025      
O2       O2-    0.845800000000     0.779350000000     0.539450000000    -1.025      
O3       O2-    0.899650000000     0.779600000000     0.985550000000    -1.025      
O4       O2-    0.951550000000     0.780550000000     0.542800000000    -1.025      
O5       O2-    0.942550000000     0.777050000000     0.638150000000    -1.025      
O6       O2-    0.878250000000     0.777650000000     0.623000000000    -1.025      
O7       O2-    0.812900000000     0.671950000000     0.618600000000    -1.025      
O8       O2-    0.845750000000     0.672400000000     0.536400000000    -1.025      
O9       O2-    0.901000000000     0.672300000000     0.985600000000    -1.025      
O10      O2-    0.954500000000     0.669300000000     0.538850000000    -1.025      
O11      O2-    0.941550000000     0.671100000000     0.634700000000    -1.025      
O12      O2-    0.877600000000     0.670300000000     0.621100000000    -1.025      
O13      O2-    0.847650000000     0.724500000000     0.593300000000    -1.025      
O14      O2-    0.961600000000     0.724050000000     0.588450000000    -1.025      
O15      O2-    0.791950000000     0.813800000000     0.694800000000    -1.025      
O16      O2-    0.795700000000     0.749150000000     0.706800000000    -1.025      
O17      O2-    0.799000000000     0.684300000000     0.711950000000    -1.025      
O18      O2-    0.905700000000     0.814900000000     0.691800000000    -1.025      
O19      O2-    0.903000000000     0.750350000000     0.704100000000    -1.025      
O20      O2-    0.902450000000     0.685450000000     0.709500000000    -1.025      
O21      O2-    0.501850000000     0.775100000000     0.604000000000    -1.025      
O22      O2-    0.502000000000     0.673600000000     0.603900000000    -1.025      
O23      O2-    0.790400000000     0.625000000000     0.677000000000    -1.025      
O24      O2-    0.905800000000     0.625000000000     0.676900000000    -1.025      
O25      O2-    0.855850000000     0.625000000000     0.971050000000    -1.025      
O26      O2-    0.945750000000     0.625000000000     0.969450000000    -1.025      
Si1      Si4+   0.788810000000     0.971750000000     0.667990000000     2.05       
Si2      Si4+   0.846420000000     0.986140000000     0.594650000000     2.05       
Si3      Si4+   0.860445000000     0.969365000000     0.984400000000     2.05       
Si4      Si4+   0.938925000000     0.968510000000     0.986650000000     2.05       
Si5      Si4+   0.964360000000     0.986390000000     0.592755000000     2.05       
Si6      Si4+   0.906795000000     0.970520000000     0.664090000000     2.05       
Si7      Si4+   0.788675000000     0.586250000000     0.663590000000     2.05       
Si8      Si4+   0.846110000000     0.565080000000     0.592740000000     2.05       
Si9      Si4+   0.862230000000     0.586395000000     0.984455000000     2.05       
Si10     Si4+   0.939710000000     0.586550000000     0.985105000000     2.05       
Si11     Si4+   0.964780000000     0.565185000000     0.591000000000     2.05       
Si12     Si4+   0.906470000000     0.586635000000     0.659665000000     2.05       
O1       O2-    0.813700000000     0.973300000000     0.622100000000    -1.025      
O2       O2-    0.845800000000     0.970650000000     0.539450000000    -1.025      
O3       O2-    0.899650000000     0.970400000000     0.985550000000    -1.025      
O4       O2-    0.951550000000     0.969450000000     0.542800000000    -1.025      
O5       O2-    0.942550000000     0.972950000000     0.638150000000    -1.025      
O6       O2-    0.878250000000     0.972350000000     0.623000000000    -1.025      
O7       O2-    0.812900000000     0.578050000000     0.618600000000    -1.025      
O8       O2-    0.845750000000     0.577600000000     0.536400000000    -1.025      
O9       O2-    0.901000000000     0.577700000000     0.985600000000    -1.025      
O10      O2-    0.954500000000     0.580700000000     0.538850000000    -1.025      
O11      O2-    0.941550000000     0.578900000000     0.634700000000    -1.025      
O12      O2-    0.877600000000     0.579700000000     0.621100000000    -1.025      
O13      O2-    0.847650000000     0.525500000000     0.593300000000    -1.025      
O14      O2-    0.961600000000     0.525950000000     0.588450000000    -1.025      
O15      O2-    0.791950000000     0.936200000000     0.694800000000    -1.025      
O16      O2-    0.795700000000     0.500850000000     0.706800000000    -1.025      
O17      O2-    0.799000000000     0.565700000000     0.711950000000    -1.025      
O18      O2-    0.905700000000     0.935100000000     0.691800000000    -1.025      
O19      O2-    0.903000000000     0.999650000000     0.704100000000    -1.025      
O20      O2-    0.902450000000     0.564550000000     0.709500000000    -1.025      
O21      O2-    0.501850000000     0.974900000000     0.604000000000    -1.025      
O22      O2-    0.502000000000     0.576400000000     0.603900000000    -1.025      
Si1      Si4+   0.961190000000     0.528250000000     0.917990000000     2.05       
Si2      Si4+   0.903580000000     0.513860000000     0.844650000000     2.05       
Si3      Si4+   0.889555000000     0.530635000000     0.734400000000     2.05       
Si4      Si4+   0.811075000000     0.531490000000     0.736650000000     2.05       
Si5      Si4+   0.785640000000     0.513610000000     0.842755000000     2.05       
Si6      Si4+   0.843205000000     0.529480000000     0.914090000000     2.05       
Si7      Si4+   0.961325000000     0.913750000000     0.913590000000     2.05       
Si8      Si4+   0.903890000000     0.934920000000     0.842740000000     2.05       
Si9      Si4+   0.887770000000     0.913605000000     0.734455000000     2.05       
Si10     Si4+   0.810290000000     0.913450000000     0.735105000000     2.05       
Si11     Si4+   0.785220000000     0.934815000000     0.841000000000     2.05       
Si12     Si4+   0.843530000000     0.913365000000     0.909665000000     2.05       
O1       O2-    0.936300000000     0.526700000000     0.872100000000    -1.025      
O2       O2-    0.904200000000     0.529350000000     0.789450000000    -1.025      
O3       O2-    0.850350000000     0.529600000000     0.735550000000    -1.025      
O4       O2-    0.798450000000     0.530550000000     0.792800000000    -1.025      
O5       O2-    0.807450000000     0.527050000000     0.888150000000    -1.025      
O6       O2-    0.871750000000     0.527650000000     0.873000000000    -1.025      
O7       O2-    0.937100000000     0.921950000000     0.868600000000    -1.025      
O8       O2-    0.904250000000     0.922400000000     0.786400000000    -1.025      
O9       O2-    0.849000000000     0.922300000000     0.735600000000    -1.025      
O10      O2-    0.795500000000     0.919300000000     0.788850000000    -1.025      
O11      O2-    0.808450000000     0.921100000000     0.884700000000    -1.025      
O12      O2-    0.872400000000     0.920300000000     0.871100000000    -1.025      
O13      O2-    0.902350000000     0.974500000000     0.843300000000    -1.025      
O14      O2-    0.788400000000     0.974050000000     0.838450000000    -1.025      
O15      O2-    0.958050000000     0.563800000000     0.944800000000    -1.025      
O16      O2-    0.954300000000     0.999150000000     0.956800000000    -1.025      
O17      O2-    0.951000000000     0.934300000000     0.961950000000    -1.025      
O18      O2-    0.844300000000     0.564900000000     0.941800000000    -1.025      
O19      O2-    0.847000000000     0.500350000000     0.954100000000    -1.025      
O20      O2-    0.847550000000     0.935450000000     0.959500000000    -1.025      
O21      O2-    0.748150000000     0.525100000000     0.854000000000    -1.025      
O22      O2-    0.748000000000     0.923600000000     0.853900000000    -1.025      
Si1      Si4+   0.538810000000     0.778250000000     0.582010000000     2.05       
Si2      Si4+   0.596420000000     0.763860000000     0.655350000000     2.05       
Si3      Si4+   0.610445000000     0.780635000000     0.765600000000     2.05       
Si4      Si4+   0.688925000000     0.781490000000     0.763350000000     2.05       
Si5      Si4+   0.714360000000     0.763610000000     0.657245000000     2.05       
Si6      Si4+   0.656795000000     0.779480000000     0.585910000000     2.05       
Si7      Si4+   0.538675000000     0.663750000000     0.586410000000     2.05       
Si8      Si4+   0.596110000000     0.684920000000     0.657260000000     2.05       
Si9      Si4+   0.612230000000     0.663605000000     0.765545000000     2.05       
Si10     Si4+   0.689710000000     0.663450000000     0.764895000000     2.05       
Si11     Si4+   0.714780000000     0.684815000000     0.659000000000     2.05       
Si12     Si4+   0.656470000000     0.663365000000     0.590335000000     2.05       
O1       O2-    0.563700000000     0.776700000000     0.627900000000    -1.025      
O2       O2-    0.595800000000     0.779350000000     0.710550000000    -1.025      
O3       O2-    0.649650000000     0.779600000000     0.764450000000    -1.025      
O4       O2-    0.701550000000     0.780550000000     0.707200000000    -1.025      
O5       O2-    0.692550000000     0.777050000000     0.611850000000    -1.025      
O6       O2-    0.628250000000     0.777650000000     0.627000000000    -1.025      
O7       O2-    0.562900000000     0.671950000000     0.631400000000    -1.025      
O8       O2-    0.595750000000     0.672400000000     0.713600000000    -1.025      
O9       O2-    0.651000000000     0.672300000000     0.764400000000    -1.025      
O10      O2-    0.704500000000     0.669300000000     0.711150000000    -1.025      
O11      O2-    0.691550000000     0.671100000000     0.615300000000    -1.025      
O12      O2-    0.627600000000     0.670300000000     0.628900000000    -1.025      
O13      O2-    0.597650000000     0.724500000000     0.656700000000    -1.025      
O14      O2-    0.711600000000     0.724050000000     0.661550000000    -1.025      
O15      O2-    0.541950000000     0.813800000000     0.555200000000    -1.025      
O16      O2-    0.545700000000     0.749150000000     0.543200000000    -1.025      
O17      O2-    0.549000000000     0.684300000000     0.538050000000    -1.025      
O18      O2-    0.655700000000     0.814900000000     0.558200000000    -1.025      
O19      O2-    0.653000000000     0.750350000000     0.545900000000    -1.025      
O20      O2-    0.652450000000     0.685450000000     0.540500000000    -1.025      
O21      O2-    0.751850000000     0.775100000000     0.646000000000    -1.025      
O22      O2-    0.752000000000     0.673600000000     0.646100000000    -1.025      
Si1      Si4+   0.711190000000     0.721750000000     0.832010000000     2.05       
Si2      Si4+   0.653580000000     0.736140000000     0.905350000000     2.05       
Si3      Si4+   0.639555000000     0.719365000000     0.515600000000     2.05       
Si4      Si4+   0.561075000000     0.718510000000     0.513350000000     2.05       
Si5      Si4+   0.535640000000     0.736390000000     0.907245000000     2.05       
Si6      Si4+   0.593205000000     0.720520000000     0.835910000000     2.05       
Si7      Si4+   0.711325000000     0.836250000000     0.836410000000     2.05       
Si8      Si4+   0.653890000000     0.815080000000     0.907260000000     2.05       
Si9      Si4+   0.637770000000     0.836395000000     0.515545000000     2.05       
Si10     Si4+   0.560290000000     0.836550000000     0.514895000000     2.05       
Si11     Si4+   0.535220000000     0.815185000000     0.909000000000     2.05       
Si12     Si4+   0.593530000000     0.836635000000     0.840335000000     2.05       
O1       O2-    0.686300000000     0.723300000000     0.877900000000    -1.025      
O2       O2-    0.654200000000     0.720650000000     0.960550000000    -1.025      
O3       O2-    0.600350000000     0.720400000000     0.514450000000    -1.025      
O4       O2-    0.548450000000     0.719450000000     0.957200000000    -1.025      
O5       O2-    0.557450000000     0.722950000000     0.861850000000    -1.025      
O6       O2-    0.621750000000     0.722350000000     0.877000000000    -1.025      
O7       O2-    0.687100000000     0.828050000000     0.881400000000    -1.025      
O8       O2-    0.654250000000     0.827600000000     0.963600000000    -1.025      
O9       O2-    0.599000000000     0.827700000000     0.514400000000    -1.025      
O10      O2-    0.545500000000     0.830700000000     0.961150000000    -1.025      
O11      O2-    0.558450000000     0.828900000000     0.865300000000    -1.025      
O12      O2-    0.622400000000     0.829700000000     0.878900000000    -1.025      
O13      O2-    0.652350000000     0.775500000000     0.906700000000    -1.025      
O14      O2-    0.538400000000     0.775950000000     0.911550000000    -1.025      
O15      O2-    0.708050000000     0.686200000000     0.805200000000    -1.025      
O16      O2-    0.704300000000     0.750850000000     0.793200000000    -1.025      
O17      O2-    0.701000000000     0.815700000000     0.788050000000    -1.025      
O18      O2-    0.594300000000     0.685100000000     0.808200000000    -1.025      
O19      O2-    0.597000000000     0.749650000000     0.795900000000    -1.025      
O20      O2-    0.597550000000     0.814550000000     0.790500000000    -1.025      
O21      O2-    0.998150000000     0.724900000000     0.896000000000    -1.025      
O22      O2-    0.998000000000     0.826400000000     0.896100000000    -1.025      


