data_image0
_cell_length_a       19.6361
_cell_length_b       11.8811
_cell_length_c       12.7195
_cell_angle_alpha    90
_cell_angle_beta     117.437
_cell_angle_gamma    90

_symmetry_space_group_name_H-M    "P 1"
_symmetry_int_tables_number       1

loop_
  _symmetry_equiv_pos_as_xyz
  'x, y, z'

loop_
  _atom_site_label
  _atom_site_occupancy
  _atom_site_fract_x
  _atom_site_fract_y
  _atom_site_fract_z
  _atom_site_thermal_displace_type
  _atom_site_B_iso_or_equiv
  _atom_site_type_symbol
  _atom_site_charge
  C1       1.0000 0.39880  0.74210  0.77070  Biso   1.000  C  0.509759
  C2       1.0000 0.60120  0.74210  0.72930  Biso   1.000  C  0.509759
  C3       1.0000 0.89880  0.24210  0.77070  Biso   1.000  C  0.509759
  C4       1.0000 0.10120  0.24210  0.72930  Biso   1.000  C  0.509759
  C5       1.0000 0.60120  0.25790  0.22930  Biso   1.000  C  0.509759
  C6       1.0000 0.39880  0.25790  0.27070  Biso   1.000  C  0.509759
  C7       1.0000 0.10120  0.75790  0.22930  Biso   1.000  C  0.509759
  C8       1.0000 0.89880  0.75790  0.27070  Biso   1.000  C  0.509759
  C9       1.0000 0.33709  0.82200  0.68190  Biso   1.000  C  0.516458
  C10      1.0000 0.66291  0.82200  0.81810  Biso   1.000  C  0.516458
  C11      1.0000 0.83709  0.32200  0.68190  Biso   1.000  C  0.516458
  C12      1.0000 0.16291  0.32200  0.81810  Biso   1.000  C  0.516458
  C13      1.0000 0.66291  0.17800  0.31810  Biso   1.000  C  0.516458
  C14      1.0000 0.33709  0.17800  0.18190  Biso   1.000  C  0.516458
  C15      1.0000 0.16291  0.67800  0.31810  Biso   1.000  C  0.516458
  C16      1.0000 0.83709  0.67800  0.18190  Biso   1.000  C  0.516458
  C17      1.0000 0.46220  0.21340  0.69080  Biso   1.000  C  0.509969
  C18      1.0000 0.53780  0.21340  0.80920  Biso   1.000  C  0.509969
  C19      1.0000 0.96220  0.71340  0.69080  Biso   1.000  C  0.509969
  C20      1.0000 0.03780  0.71340  0.80920  Biso   1.000  C  0.509969
  C21      1.0000 0.53780  0.78660  0.30920  Biso   1.000  C  0.509969
  C22      1.0000 0.46220  0.78660  0.19080  Biso   1.000  C  0.509969
  C23      1.0000 0.03780  0.28660  0.30920  Biso   1.000  C  0.509969
  C24      1.0000 0.96220  0.28660  0.19080  Biso   1.000  C  0.509969
  C25      1.0000 0.46170  0.03110  0.96750  Biso   1.000  C  0.524595
  C26      1.0000 0.53830  0.03110  0.53250  Biso   1.000  C  0.524595
  C27      1.0000 0.96170  0.53110  0.96750  Biso   1.000  C  0.524595
  C28      1.0000 0.03830  0.53110  0.53250  Biso   1.000  C  0.524595
  C29      1.0000 0.53830  0.96890  0.03250  Biso   1.000  C  0.524595
  C30      1.0000 0.46170  0.96890  0.46750  Biso   1.000  C  0.524595
  C31      1.0000 0.03830  0.46890  0.03250  Biso   1.000  C  0.524595
  C32      1.0000 0.96170  0.46890  0.46750  Biso   1.000  C  0.524595
  O1       1.0000 0.46598  0.78398  0.82073  Biso   1.000  O  -0.695624
  O2       1.0000 0.53402  0.78398  0.67927  Biso   1.000  O  -0.695624
  O3       1.0000 0.96598  0.28398  0.82073  Biso   1.000  O  -0.695624
  O4       1.0000 0.03402  0.28398  0.67927  Biso   1.000  O  -0.695624
  O5       1.0000 0.53402  0.21602  0.17927  Biso   1.000  O  -0.695624
  O6       1.0000 0.46598  0.21602  0.32073  Biso   1.000  O  -0.695624
  O7       1.0000 0.03402  0.71602  0.17927  Biso   1.000  O  -0.695624
  O8       1.0000 0.96598  0.71602  0.32073  Biso   1.000  O  -0.695624
  O9       1.0000 0.38125  0.64640  0.78640  Biso   1.000  O  -0.623504
  O10      1.0000 0.61875  0.64640  0.71360  Biso   1.000  O  -0.623504
  O11      1.0000 0.88125  0.14640  0.78640  Biso   1.000  O  -0.623504
  O12      1.0000 0.11875  0.14640  0.71360  Biso   1.000  O  -0.623504
  O13      1.0000 0.61875  0.35360  0.21360  Biso   1.000  O  -0.623504
  O14      1.0000 0.38125  0.35360  0.28640  Biso   1.000  O  -0.623504
  O15      1.0000 0.11875  0.85360  0.21360  Biso   1.000  O  -0.623504
  O16      1.0000 0.88125  0.85360  0.28640  Biso   1.000  O  -0.623504
  O17      1.0000 0.26867  0.79600  0.64160  Biso   1.000  O  -0.633039
  O18      1.0000 0.73133  0.79600  0.85840  Biso   1.000  O  -0.633039
  O19      1.0000 0.76867  0.29600  0.64160  Biso   1.000  O  -0.633039
  O20      1.0000 0.23133  0.29600  0.85840  Biso   1.000  O  -0.633039
  O21      1.0000 0.73133  0.20400  0.35840  Biso   1.000  O  -0.633039
  O22      1.0000 0.26867  0.20400  0.14160  Biso   1.000  O  -0.633039
  O23      1.0000 0.23133  0.70400  0.35840  Biso   1.000  O  -0.633039
  O24      1.0000 0.76867  0.70400  0.14160  Biso   1.000  O  -0.633039
  O25      1.0000 0.36437  0.90903  0.65805  Biso   1.000  O  -0.621074
  O26      1.0000 0.63563  0.90903  0.84195  Biso   1.000  O  -0.621074
  O27      1.0000 0.86437  0.40903  0.65805  Biso   1.000  O  -0.621074
  O28      1.0000 0.13563  0.40903  0.84195  Biso   1.000  O  -0.621074
  O29      1.0000 0.63563  0.09097  0.34195  Biso   1.000  O  -0.621074
  O30      1.0000 0.36437  0.09097  0.15805  Biso   1.000  O  -0.621074
  O31      1.0000 0.13563  0.59097  0.34195  Biso   1.000  O  -0.621074
  O32      1.0000 0.86437  0.59097  0.15805  Biso   1.000  O  -0.621074
  O33      1.0000 0.43425  0.11612  0.65354  Biso   1.000  O  -0.692470
  O34      1.0000 0.56575  0.11612  0.84646  Biso   1.000  O  -0.692470
  O35      1.0000 0.93425  0.61612  0.65354  Biso   1.000  O  -0.692470
  O36      1.0000 0.06575  0.61612  0.84646  Biso   1.000  O  -0.692470
  O37      1.0000 0.56575  0.88388  0.34646  Biso   1.000  O  -0.692470
  O38      1.0000 0.43425  0.88388  0.15354  Biso   1.000  O  -0.692470
  O39      1.0000 0.06575  0.38388  0.34646  Biso   1.000  O  -0.692470
  O40      1.0000 0.93425  0.38388  0.15354  Biso   1.000  O  -0.692470
  O41      1.0000 0.43420  0.30290  0.64130  Biso   1.000  O  -0.622610
  O42      1.0000 0.56580  0.30290  0.85870  Biso   1.000  O  -0.622610
  O43      1.0000 0.93420  0.80290  0.64130  Biso   1.000  O  -0.622610
  O44      1.0000 0.06580  0.80290  0.85870  Biso   1.000  O  -0.622610
  O45      1.0000 0.56580  0.69710  0.35870  Biso   1.000  O  -0.622610
  O46      1.0000 0.43420  0.69710  0.14130  Biso   1.000  O  -0.622610
  O47      1.0000 0.06580  0.19710  0.35870  Biso   1.000  O  -0.622610
  O48      1.0000 0.93420  0.19710  0.14130  Biso   1.000  O  -0.622610
  O49      1.0000 0.43276  0.03409  0.85654  Biso   1.000  O  -0.645106
  O50      1.0000 0.56724  0.03409  0.64346  Biso   1.000  O  -0.645106
  O51      1.0000 0.93276  0.53409  0.85654  Biso   1.000  O  -0.645106
  O52      1.0000 0.06724  0.53409  0.64346  Biso   1.000  O  -0.645106
  O53      1.0000 0.56724  0.96591  0.14346  Biso   1.000  O  -0.645106
  O54      1.0000 0.43276  0.96591  0.35654  Biso   1.000  O  -0.645106
  O55      1.0000 0.06724  0.46591  0.14346  Biso   1.000  O  -0.645106
  O56      1.0000 0.93276  0.46591  0.35654  Biso   1.000  O  -0.645106
  O57      1.0000 0.43462  0.07338  0.03026  Biso   1.000  O  -0.617873
  O58      1.0000 0.56538  0.07338  0.46974  Biso   1.000  O  -0.617873
  O59      1.0000 0.93462  0.57338  0.03026  Biso   1.000  O  -0.617873
  O60      1.0000 0.06538  0.57338  0.46974  Biso   1.000  O  -0.617873
  O61      1.0000 0.56538  0.92662  0.96974  Biso   1.000  O  -0.617873
  O62      1.0000 0.43462  0.92662  0.53026  Biso   1.000  O  -0.617873
  O63      1.0000 0.06538  0.42662  0.96974  Biso   1.000  O  -0.617873
  O64      1.0000 0.93462  0.42662  0.53026  Biso   1.000  O  -0.617873
  Pu1      1.0000 0.50000  0.94939  0.75000  Biso   1.000  Pu  2.181038
  Pu2      1.0000 0.00000  0.44939  0.75000  Biso   1.000  Pu  2.181038
  Pu3      1.0000 0.50000  0.05061  0.25000  Biso   1.000  Pu  2.181038
  Pu4      1.0000 0.00000  0.55061  0.25000  Biso   1.000  Pu  2.181038
  Li1      1.0000 0.34633  0.02836  0.52681  Biso   1.000  Li  1.000000
  Li2      1.0000 0.15617  0.57293  0.81603  Biso   1.000  Li  1.000000
  Li3      1.0000 0.54940  0.31007  0.02356  Biso   1.000  Li  1.000000
  Li4      1.0000 0.65551  0.07651  0.80203  Biso   1.000  Li  1.000000
  Li5      1.0000 0.92009  0.84134  0.47162  Biso   1.000  Li  1.000000
  Li6      1.0000 0.68479  0.82004  0.05333  Biso   1.000  Li  1.000000
  Li7      1.0000 0.84754  0.42496  0.18638  Biso   1.000  Li  1.000000
  Li8      1.0000 0.49062  0.57419  0.26070  Biso   1.000  Li  1.000000
  Li9      1.0000 0.34540  0.97819  0.03162  Biso   1.000  Li  1.000000
  Li10     1.0000 0.50593  0.60752  0.64914  Biso   1.000  Li  1.000000
  Li11     1.0000 0.02266  0.84992  0.05528  Biso   1.000  Li  1.000000
  Li12     1.0000 0.84257  0.56813  0.69458  Biso   1.000  Li  1.000000
  Li13     1.0000 0.08332  0.18012  0.52964  Biso   1.000  Li  1.000000
  Li14     1.0000 0.22910  0.66610  0.52069  Biso   1.000  Li  1.000000
  Li15     1.0000 0.17379  0.30839  0.07379  Biso   1.000  Li  1.000000
  Li16     1.0000 0.73554  0.16993  0.52282  Biso   1.000  Li  1.000000
